
  EPA STORM WATER MANAGEMENT MODEL - VERSION 5.2 (Build 5.2.4)
  ------------------------------------------------------------

  
  ERROR 209: undefined object sep at line 46 of [ORIFICE] section:
  pit              sep              p1               SIDE       51.80      0.650      NO       0

  
  ERROR 209: undefined object 0.20 at line 51 of [XSECT] section:
  path2            IRREGULAR    0.20       0          0          0          1

  
  ERROR 209: undefined object 0.20 at line 53 of [XSECT] section:
  path1            IRREGULAR    0.20       0          0          0          1

  
  ERROR 211: invalid number  at line 54 of [XSECT] section:
  pit              RECT_CLOSED  0.30       0          0          0          


  Analysis begun on:  Sat Mar  7 21:51:23 2026
  Analysis ended on:  Sat Mar  7 21:51:23 2026
  Total elapsed time: < 1 sec