
  EPA STORM WATER MANAGEMENT MODEL - VERSION 5.2 (Build 5.2.4)
  ------------------------------------------------------------

  
  ERROR 209: undefined object 0 at line 44 of [XSECT] section:
  F80-70           IRREGULAR    0          0          0          0          1

  
  ERROR 209: undefined object 0 at line 45 of [XSECT] section:
  F60-50           IRREGULAR    0          0          0          0          1

  
  ERROR 211: invalid number  at line 46 of [XSECT] section:
  F70-60           RECT_OPEN    0          200.00     0          0          


  Analysis begun on:  Sat Mar  7 21:51:23 2026
  Analysis ended on:  Sat Mar  7 21:51:23 2026
  Total elapsed time: < 1 sec