
  EPA STORM WATER MANAGEMENT MODEL - VERSION 5.2 (Build 5.2.4)
  ------------------------------------------------------------

  
  ERROR 207: duplicate ID name 0 at line 27 of [JUNC] section:
  0                16.00      0          17.50      0          0

  
  ERROR 207: duplicate ID name 0 at line 28 of [JUNC] section:
  0                16.00      0          17.50      0          0

  
  ERROR 207: duplicate ID name 0 at line 29 of [JUNC] section:
  0                16.00      0          17.50      0          0

  
  ERROR 207: duplicate ID name 0 at line 30 of [JUNC] section:
  0                16.00      0          17.50      0          0

  
  ERROR 207: duplicate ID name 0 at line 31 of [JUNC] section:
  0                16.00      0          17.50      0          0

  
  ERROR 207: duplicate ID name 0 at line 32 of [JUNC] section:
  0                16.00      0          17.50      0          0

  
  ERROR 207: duplicate ID name 0 at line 33 of [JUNC] section:
  0                16.00      0          17.50      0          0

  
  ERROR 207: duplicate ID name 0 at line 34 of [JUNC] section:
  0                16.00      0          17.50      0          0

  
  ERROR 207: duplicate ID name 0 at line 35 of [JUNC] section:
  0                16.00      0          17.50      0          0

  
  ERROR 207: duplicate ID name 0 at line 36 of [JUNC] section:
  0                16.00      0          17.50      0          0

  
  ERROR 207: duplicate ID name 0 at line 37 of [JUNC] section:
  0                16.00      0          17.50      0          0

  
  ERROR 207: duplicate ID name 0 at line 38 of [JUNC] section:
  0                16.00      0          17.50      0          0

  
  ERROR 207: duplicate ID name 0 at line 39 of [JUNC] section:
  0                16.00      0          17.50      0          0

  
  ERROR 207: duplicate ID name 0 at line 40 of [JUNC] section:
  0                16.00      0          17.41      0          0

  
  ERROR 207: duplicate ID name 0 at line 41 of [JUNC] section:
  0                17.00      0          17.50      0          0

  
  ERROR 207: duplicate ID name 0 at line 42 of [JUNC] section:
  0                17.00      0          17.50      0          0

  
  ERROR 207: duplicate ID name 0 at line 43 of [JUNC] section:
  0                17.00      0          17.50      0          0

  
  ERROR 207: duplicate ID name 0 at line 44 of [JUNC] section:
  0                17.00      0          17.50      0          0

  
  ERROR 207: duplicate ID name 0 at line 45 of [JUNC] section:
  0                16.00      0          17.50      0          0

  
  ERROR 207: duplicate ID name 0 at line 46 of [JUNC] section:
  0                16.00      0          14.50      0          0

  
  ERROR 207: duplicate ID name 0 at line 47 of [JUNC] section:
  0                16.00      0          10.00      0          0

  
  ERROR 207: duplicate ID name 0 at line 48 of [JUNC] section:
  0                16.00      0          10.00      0          0

  
  ERROR 207: duplicate ID name 0 at line 49 of [JUNC] section:
  0                16.00      0          10.00      0          0

  
  ERROR 207: duplicate ID name 0 at line 50 of [JUNC] section:
  0                15.00      0          17.50      0          0

  
  ERROR 207: duplicate ID name 0 at line 51 of [JUNC] section:
  0                15.00      0          17.50      0          0

  
  ERROR 207: duplicate ID name 0 at line 52 of [JUNC] section:
  0                15.00      0          14.33      0          0

  
  ERROR 207: duplicate ID name 0 at line 53 of [JUNC] section:
  0                16.00      0          15.00      0          0

  
  ERROR 207: duplicate ID name 0 at line 54 of [JUNC] section:
  0                16.00      0          15.00      0          0

  
  ERROR 207: duplicate ID name 0 at line 55 of [JUNC] section:
  0                16.00      0          15.00      0          0

  
  ERROR 207: duplicate ID name 0 at line 56 of [JUNC] section:
  0                16.00      0          15.00      0          0

  
  ERROR 207: duplicate ID name 0 at line 57 of [JUNC] section:
  0                16.00      0          15.00      0          0

  
  ERROR 207: duplicate ID name 0 at line 58 of [JUNC] section:
  0                16.00      0          17.50      0          0

  
  ERROR 207: duplicate ID name 0 at line 59 of [JUNC] section:
  0                16.00      0          17.50      0          0

  
  ERROR 207: duplicate ID name 0 at line 60 of [JUNC] section:
  0                16.00      0          17.50      0          0

  
  ERROR 207: duplicate ID name 0 at line 61 of [JUNC] section:
  0                16.00      0          17.50      0          0

  
  ERROR 207: duplicate ID name 0 at line 62 of [JUNC] section:
  0                16.00      0          17.50      0          0

  
  ERROR 207: duplicate ID name 0 at line 63 of [JUNC] section:
  0                16.00      0          17.50      0          0

  
  ERROR 207: duplicate ID name 0 at line 64 of [JUNC] section:
  0                16.00      0          17.50      0          0

  
  ERROR 207: duplicate ID name 0 at line 65 of [JUNC] section:
  0                16.00      0          17.50      0          0

  
  ERROR 207: duplicate ID name 0 at line 66 of [JUNC] section:
  0                15.00      0          17.50      0          0

  
  ERROR 207: duplicate ID name 0 at line 67 of [JUNC] section:
  0                15.00      0          17.50      0          0

  
  ERROR 207: duplicate ID name 0 at line 68 of [JUNC] section:
  0                15.00      0          17.50      0          0

  
  ERROR 207: duplicate ID name 0 at line 69 of [JUNC] section:
  0                16.00      0          17.50      0          0

  
  ERROR 207: duplicate ID name 0 at line 70 of [JUNC] section:
  0                16.00      0          17.50      0          0

  
  ERROR 207: duplicate ID name 0 at line 71 of [JUNC] section:
  0                16.00      0          17.50      0          0

  
  ERROR 207: duplicate ID name 0 at line 72 of [JUNC] section:
  0                16.00      0          17.50      0          0

  
  ERROR 207: duplicate ID name 0 at line 73 of [JUNC] section:
  0                16.00      0          17.50      0          0

  
  ERROR 207: duplicate ID name 0 at line 74 of [JUNC] section:
  0                16.00      0          17.50      0          0

  
  ERROR 207: duplicate ID name 0 at line 75 of [JUNC] section:
  0                15.00      0          17.50      0          0

  
  ERROR 207: duplicate ID name 0 at line 76 of [JUNC] section:
  0                16.00      0          17.50      0          0

  
  ERROR 207: duplicate ID name 0 at line 77 of [JUNC] section:
  0                17.00      0          17.50      0          0

  
  ERROR 207: duplicate ID name 0 at line 78 of [JUNC] section:
  0                17.00      0          17.50      0          0

  
  ERROR 207: duplicate ID name 0 at line 79 of [JUNC] section:
  0                16.00      0          0          0          0

  
  ERROR 207: duplicate ID name 0 at line 80 of [JUNC] section:
  0                16.00      0          0          0          0

  
  ERROR 207: duplicate ID name 0 at line 81 of [JUNC] section:
  0                17.00      0          0          0          0

  
  ERROR 207: duplicate ID name 0 at line 82 of [JUNC] section:
  0                17.00      0          0          0          0

  
  ERROR 207: duplicate ID name 0 at line 83 of [JUNC] section:
  0                17.00      0          0          0          0

  
  ERROR 207: duplicate ID name 0 at line 84 of [JUNC] section:
  0                16.00      0          0          0          0

  
  ERROR 207: duplicate ID name 0 at line 85 of [JUNC] section:
  0                17.00      0          0          0          0

  
  ERROR 207: duplicate ID name 0 at line 86 of [JUNC] section:
  0                17.00      0          0          0          0

  
  ERROR 207: duplicate ID name 0 at line 87 of [JUNC] section:
  0                17.00      0          0          0          0

  
  ERROR 207: duplicate ID name 0 at line 88 of [JUNC] section:
  0                17.00      0          0          0          0

  
  ERROR 207: duplicate ID name 0 at line 89 of [JUNC] section:
  0                17.00      0          0          0          0

  
  ERROR 207: duplicate ID name 0 at line 90 of [JUNC] section:
  0                17.00      0          14.33      0          0

  
  ERROR 207: duplicate ID name 0 at line 91 of [JUNC] section:
  0                17.00      0          0          0          0

  
  ERROR 207: duplicate ID name 0 at line 92 of [JUNC] section:
  0                14.00      0          17.50      0          0

  
  ERROR 207: duplicate ID name 0 at line 93 of [JUNC] section:
  0                16.00      0          17.50      0          0

  
  ERROR 207: duplicate ID name 0 at line 94 of [JUNC] section:
  0                15.00      0          17.50      0          0

  
  ERROR 207: duplicate ID name 0 at line 95 of [JUNC] section:
  0                17.00      0          17.50      0          0

  
  ERROR 207: duplicate ID name 0 at line 96 of [JUNC] section:
  0                14.00      0          17.50      0          0

  
  ERROR 207: duplicate ID name 0 at line 97 of [JUNC] section:
  0                17.00      0          17.50      0          0

  
  ERROR 207: duplicate ID name 0 at line 98 of [JUNC] section:
  0                14.00      0          17.50      0          0

  
  ERROR 207: duplicate ID name 0 at line 103 of [STORAGE] section:
  0                17.00      0          21.50      FUNCTIONAL 0 0          0

  
  ERROR 207: duplicate ID name 0 at line 104 of [STORAGE] section:
  0                15.00      0          19.00      FUNCTIONAL 0 0          0

  
  ERROR 207: duplicate ID name 0 at line 105 of [STORAGE] section:
  0                16.00      0          19.25      FUNCTIONAL 0 0          0

  
  ERROR 207: duplicate ID name 0 at line 106 of [STORAGE] section:
  0                16.00      0          18.50      FUNCTIONAL 0 0          0

  
  ERROR 207: duplicate ID name 0 at line 107 of [STORAGE] section:
  0                18.40      -2.40      19.00      FUNCTIONAL 0 0          0

  
  ERROR 207: duplicate ID name 0 at line 108 of [STORAGE] section:
  0                16.00      0          20.00      FUNCTIONAL 0 0          0

  
  ERROR 207: duplicate ID name 0 at line 109 of [STORAGE] section:
  0                16.00      0          22.00      FUNCTIONAL 0 0          0

  
  ERROR 207: duplicate ID name 0 at line 110 of [STORAGE] section:
  0                16.00      0          18.00      FUNCTIONAL 0 0          0

  
  ERROR 207: duplicate ID name 0 at line 111 of [STORAGE] section:
  0                16.00      0          21.00      FUNCTIONAL 0 0          0

  
  ERROR 207: duplicate ID name 0 at line 112 of [STORAGE] section:
  0                16.00      0          20.00      FUNCTIONAL 0 0          0

  
  ERROR 207: duplicate ID name 0 at line 113 of [STORAGE] section:
  0                16.00      0          20.00      FUNCTIONAL 0 0          0

  
  ERROR 207: duplicate ID name 0 at line 114 of [STORAGE] section:
  0                16.00      0          20.00      FUNCTIONAL 0 0          0

  
  ERROR 207: duplicate ID name 0 at line 115 of [STORAGE] section:
  0                16.00      0          19.25      FUNCTIONAL 0 0          0

  
  ERROR 207: duplicate ID name 0 at line 116 of [STORAGE] section:
  0                14.00      0          17.46      FUNCTIONAL 0 0          0

  
  ERROR 207: duplicate ID name 0 at line 117 of [STORAGE] section:
  0                15.50      0          17.46      FUNCTIONAL 0 0          0

  
  ERROR 207: duplicate ID name 0 at line 118 of [STORAGE] section:
  0                16.00      0          17.50      FUNCTIONAL 0 0          0

  
  ERROR 207: duplicate ID name 0 at line 119 of [STORAGE] section:
  0                16.00      0          19.25      FUNCTIONAL 0 0          0

  
  ERROR 207: duplicate ID name 0 at line 120 of [STORAGE] section:
  0                16.00      0          18.00      FUNCTIONAL 0 0          0

  
  ERROR 207: duplicate ID name 0 at line 121 of [STORAGE] section:
  0                16.00      0          19.70      FUNCTIONAL 0 0          0

  
  ERROR 207: duplicate ID name 0 at line 122 of [STORAGE] section:
  0                16.00      0          18.60      FUNCTIONAL 0 0          0

  
  ERROR 207: duplicate ID name 0 at line 123 of [STORAGE] section:
  0                15.00      0          19.00      FUNCTIONAL 0 0          0

  
  ERROR 207: duplicate ID name 0 at line 124 of [STORAGE] section:
  0                16.00      0          18.50      FUNCTIONAL 0 0          0

  
  ERROR 207: duplicate ID name 0 at line 125 of [STORAGE] section:
  0                16.00      0          17.50      FUNCTIONAL 0 0          0

  
  ERROR 207: duplicate ID name 0 at line 126 of [STORAGE] section:
  0                16.00      -2.00      17.50      FUNCTIONAL 0 0          0

  
  ERROR 207: duplicate ID name 0 at line 127 of [STORAGE] section:
  0                13.00      0          17.25      FUNCTIONAL 0 0          0

  
  ERROR 207: duplicate ID name 0 at line 128 of [STORAGE] section:
  0                17.00      0          21.50      FUNCTIONAL 0 0          0

  
  ERROR 207: duplicate ID name 0 at line 129 of [STORAGE] section:
  0                17.00      0          19.00      FUNCTIONAL 0 0          0

  
  ERROR 207: duplicate ID name 0 at line 130 of [STORAGE] section:
  0                12.00      0          17.50      FUNCTIONAL 0 0          0


  Analysis begun on:  Sat Mar  7 21:51:28 2026
  Analysis ended on:  Sat Mar  7 21:51:28 2026
  Total elapsed time: < 1 sec