
  EPA STORM WATER MANAGEMENT MODEL - VERSION 5.2 (Build 5.2.4)
  ------------------------------------------------------------

  
  ERROR 207: duplicate ID name 0 at line 28 of [JUNC] section:
  0                200.00     0          120.00     0          0

  
  ERROR 207: duplicate ID name 0 at line 29 of [JUNC] section:
  0                5.00       0          120.00     0          0

  
  ERROR 207: duplicate ID name 0 at line 30 of [JUNC] section:
  0                5.00       0          120.00     0          0

  
  ERROR 207: duplicate ID name 0 at line 31 of [JUNC] section:
  0                5.00       0          120.00     0          0

  
  ERROR 207: duplicate ID name 0 at line 32 of [JUNC] section:
  0                200.00     0          120.00     0          0

  
  ERROR 207: duplicate ID name 0 at line 33 of [JUNC] section:
  0                200.00     0          120.00     0          0

  
  ERROR 207: duplicate ID name 0 at line 34 of [JUNC] section:
  0                5.00       0          120.00     0          0

  
  ERROR 207: duplicate ID name 0 at line 35 of [JUNC] section:
  0                200.00     0          120.00     0          0

  
  ERROR 207: duplicate ID name 0 at line 36 of [JUNC] section:
  0                200.00     0          120.00     0          0

  
  ERROR 207: duplicate ID name 0 at line 41 of [STORAGE] section:
  0                200.00     0          120.00     FUNCTIONAL 1000.00 0          0

  
  ERROR 207: duplicate ID name 0 at line 42 of [STORAGE] section:
  0                200.00     0          0          FUNCTIONAL 10000.00 0          0

  
  ERROR 207: duplicate ID name 0 at line 43 of [STORAGE] section:
  0                200.00     0          120.00     FUNCTIONAL 1000.00 0          0


  Analysis begun on:  Sat Mar  7 21:51:25 2026
  Analysis ended on:  Sat Mar  7 21:51:25 2026
  Total elapsed time: < 1 sec