
  EPA STORM WATER MANAGEMENT MODEL - VERSION 5.2 (Build 5.2.4)
  ------------------------------------------------------------

  
  ERROR 209: undefined object ? at line 370 of [CONDUIT] section:
  09323007C0       ?                ?                435.00     0.0150     895.19     890.00     0          0

  
  ERROR 209: undefined object Node_9321010 at line 525 of [CONDUIT] section:
  09321010C0       Node_9321010     Node_10901091    70.00      0.0150     873.09     870.50     0          0

  
  ERROR 209: undefined object Node_9321028 at line 526 of [CONDUIT] section:
  09321028C0       Node_9321028     Node_10961098    340.00     0.0150     841.99     837.35     0          0

  
  ERROR 209: undefined object Node_9321027 at line 527 of [CONDUIT] section:
  09321027C0       Node_9321027     Node_10981100    70.00      0.0150     837.35     836.00     0          0

  
  ERROR 209: undefined object Node_9321026 at line 528 of [CONDUIT] section:
  09321026C0       Node_9321026     Node_11001102    190.00     0.0150     836.00     833.31     0          0

  
  ERROR 209: undefined object Node_9321025 at line 529 of [CONDUIT] section:
  09321025C0       Node_9321025     Node_11021104    350.00     0.0150     833.31     828.89     0          0

  
  ERROR 209: undefined object Node_9321024 at line 530 of [CONDUIT] section:
  09321024C0       Node_9321024     Node_11041106    90.00      0.0150     828.89     828.86     0          0

  
  ERROR 209: undefined object Node_9321023 at line 531 of [CONDUIT] section:
  09321023C0       Node_9321023     Node_11061108    50.00      0.0150     828.86     828.14     0          0

  
  ERROR 209: undefined object Node_9321022 at line 532 of [CONDUIT] section:
  09321022C0       Node_9321022     Node_11081110    150.00     0.0150     828.14     825.54     0          0

  
  ERROR 209: undefined object Node_9321021 at line 533 of [CONDUIT] section:
  09321021C0       Node_9321021     Node_11101112    300.00     0.0150     825.54     824.24     0          0

  
  ERROR 209: undefined object Node_9321020 at line 534 of [CONDUIT] section:
  09321020C0       Node_9321020     Node_11121114    230.00     0.0150     824.24     823.43     0          0

  
  ERROR 209: undefined object Node_9321019 at line 535 of [CONDUIT] section:
  09321019C0       Node_9321019     Node_11141116    270.00     0.0150     823.43     822.42     0          0

  
  ERROR 209: undefined object Node_9321018 at line 536 of [CONDUIT] section:
  09321018C0       Node_9321018     Node_11161118    60.00      0.0150     822.42     822.27     0          0

  
  ERROR 209: undefined object Node_9321017 at line 537 of [CONDUIT] section:
  09321017C0       Node_9321017     Node_11181120    300.00     0.0150     822.27     820.81     0          0

  
  ERROR 209: undefined object Node_9321016 at line 538 of [CONDUIT] section:
  09321016C0       Node_9321016     Node_11201122    230.00     0.0150     820.81     820.60     0          0

  
  ERROR 209: undefined object Node_9321015 at line 539 of [CONDUIT] section:
  09321015C0       Node_9321015     Node_11221124    170.00     0.0150     820.60     819.14     0          0

  
  ERROR 209: undefined object Node_9321014 at line 540 of [CONDUIT] section:
  09321014C0       Node_9321014     Node_11241126    160.00     0.0150     819.14     817.67     0          0

  
  ERROR 209: undefined object Node_9321013 at line 541 of [CONDUIT] section:
  09321013C0       Node_9321013     Node_11261128    360.00     0.0150     817.67     817.25     0          0

  
  ERROR 209: undefined object Node_9321012 at line 542 of [CONDUIT] section:
  09321012C0       Node_9321012     Node_11281130    330.00     0.0150     817.25     816.86     0          0

  
  ERROR 209: undefined object Node_9321011 at line 543 of [CONDUIT] section:
  09321011C0       Node_9321011     Node_1130682     430.00     0.0150     816.86     815.69     0          0

  
  ERROR 209: undefined object Node_9321009 at line 544 of [CONDUIT] section:
  09321009C0       Node_9321009     Node_1091686     1670.00    0.0150     870.50     824.02     0          0

  
  ERROR 209: undefined object Node_9321032 at line 545 of [CONDUIT] section:
  09321032C0       Node_9321032     Node_11351137    260.00     0.0150     817.61     815.40     0          0

  
  ERROR 209: undefined object Node_9321031 at line 546 of [CONDUIT] section:
  09321031C0       Node_9321031     Node_11371139    30.00      0.0150     815.40     814.78     0          0

  
  ERROR 209: undefined object Node_9321030 at line 547 of [CONDUIT] section:
  09321030C0       Node_9321030     Node_11391141    150.00     0.0150     814.78     813.38     0          0

  
  ERROR 209: undefined object Node_9321029 at line 548 of [CONDUIT] section:
  09321029C0       Node_9321029     Node_1141681     25.00      0.0150     813.38     811.50     0          0

  
  ERROR 209: undefined object Node_9321035 at line 549 of [CONDUIT] section:
  09321035C0       Node_9321035     Node_11441145    280.00     0.0150     814.30     812.27     0          0

  
  ERROR 209: undefined object Node_9321037 at line 550 of [CONDUIT] section:
  09321037C0       Node_9321037     Node_11481151    400.00     0.0150     819.15     814.30     0          0

  
  ERROR 209: undefined object Node_9321036 at line 551 of [CONDUIT] section:
  09321036C0       Node_9321036     Node_1151680     780.00     0.0150     814.30     811.18     0          0

  
  ERROR 209: undefined object Node_9321034 at line 552 of [CONDUIT] section:
  09321034C0       Node_9321034     Node_1145681     470.00     0.0150     812.27     811.50     0          0

  
  ERROR 209: undefined object Node_9294014 at line 553 of [CONDUIT] section:
  09294014C0       Node_9294014     Node_1155678     210.00     0.0150     808.28     807.28     0          0

  
  ERROR 209: undefined object Node_9294013 at line 554 of [CONDUIT] section:
  09294013C0       Node_9294013     Node_1157678     100.00     0.0150     810.26     807.28     0          0

  
  ERROR 209: undefined object Node_9312019 at line 555 of [CONDUIT] section:
  09312019C0       Node_9312019     Node_11671168    290.00     0.0150     932.40     927.30     0          0

  
  ERROR 209: undefined object Node_9312018 at line 556 of [CONDUIT] section:
  09312018C0       Node_9312018     Node_11681170    190.00     0.0150     927.30     924.40     0          0

  
  ERROR 209: undefined object Node_9312017 at line 557 of [CONDUIT] section:
  09312017C0       Node_9312017     Node_11701172    210.00     0.0150     924.40     921.96     0          0

  
  ERROR 209: undefined object Node_9312016 at line 558 of [CONDUIT] section:
  09312016C0       Node_9312016     Node_11721174    330.00     0.0150     921.96     918.75     0          0

  
  ERROR 209: undefined object Node_9312015 at line 559 of [CONDUIT] section:
  09312015C0       Node_9312015     Node_11741176    200.00     0.0150     918.75     916.40     0          0

  
  ERROR 209: undefined object Node_9312014 at line 560 of [CONDUIT] section:
  09312014C0       Node_9312014     Node_11761178    220.00     0.0150     916.40     913.95     0          0

  
  ERROR 209: undefined object Node_9312013 at line 561 of [CONDUIT] section:
  09312013C0       Node_9312013     Node_11781180    90.00      0.0150     913.95     912.52     0          0

  
  ERROR 209: undefined object Node_9312012 at line 562 of [CONDUIT] section:
  09312012C0       Node_9312012     Node_11801182    40.00      0.0150     912.52     911.88     0          0

  
  ERROR 209: undefined object Node_9312011 at line 563 of [CONDUIT] section:
  09312011C0       Node_9312011     Node_11821184    30.00      0.0150     911.88     911.40     0          0

  
  ERROR 209: undefined object Node_9312010 at line 564 of [CONDUIT] section:
  09312010C0       Node_9312010     Node_11841186    100.00     0.0150     911.40     910.75     0          0

  
  ERROR 209: undefined object Node_9312009 at line 565 of [CONDUIT] section:
  09312009C0       Node_9312009     Node_11861188    50.00      0.0150     910.75     910.49     0          0

  
  ERROR 209: undefined object Node_9312008 at line 566 of [CONDUIT] section:
  09312008C0       Node_9312008     Node_11881190    80.00      0.0150     910.49     908.34     0          0

  
  ERROR 209: undefined object Node_9312007 at line 567 of [CONDUIT] section:
  09312007C0       Node_9312007     Node_11901192    30.00      0.0150     908.34     907.99     0          0

  
  ERROR 209: undefined object Node_9312006 at line 568 of [CONDUIT] section:
  09312006C0       Node_9312006     Node_11921195    190.00     0.0150     907.99     905.90     0          0

  
  ERROR 209: undefined object Node_9312005 at line 569 of [CONDUIT] section:
  09312005C0       Node_9312005     Node_11951197    30.00      0.0150     905.90     905.55     0          0

  
  ERROR 209: undefined object ? at line 570 of [CONDUIT] section:
  09312004C0       ?                Node_93          40.00      0.0150     905.55     904.81     0          0

  
  ERROR 209: undefined object Node_9312003 at line 571 of [CONDUIT] section:
  09312003C0       Node_9312003     Node_11991201    250.00     0.0150     904.81     900.54     0          0

  
  ERROR 209: undefined object Node_9312002 at line 572 of [CONDUIT] section:
  09312002C0       Node_9312002     Node_12011203    60.00      0.0150     900.54     899.95     0          0

  
  ERROR 209: undefined object Node_9312001 at line 573 of [CONDUIT] section:
  09312001C0       Node_9312001     Node_12031205    300.00     0.0150     899.95     898.83     0          0

  
  ERROR 209: undefined object Node_9303020 at line 574 of [CONDUIT] section:
  09303020C0       Node_9303020     Node_12051207    140.00     0.0150     898.83     896.71     0          0

  
  ERROR 209: undefined object Node_9303019 at line 575 of [CONDUIT] section:
  09303019C0       Node_9303019     Node_12071209    100.00     0.0150     896.71     895.41     0          0

  
  ERROR 209: undefined object Node_9303018 at line 576 of [CONDUIT] section:
  09303018C0       Node_9303018     Node_1209826     480.00     0.0150     895.41     890.04     0          0

  
  ERROR 209: undefined object Node_9312020 at line 577 of [CONDUIT] section:
  09312020C0       Node_9312020     Node_12121167    250.00     0.0150     935.52     932.40     0          0

  
  ERROR 209: undefined object Node_9312025 at line 578 of [CONDUIT] section:
  09312025C0       Node_9312025     Node_12251226    40.00      0.0150     909.47     909.22     0          0

  
  ERROR 209: undefined object Node_9312024 at line 579 of [CONDUIT] section:
  09312024C0       Node_9312024     Node_12261228    40.00      0.0150     909.22     909.16     0          0

  
  ERROR 209: undefined object Node_9312023 at line 580 of [CONDUIT] section:
  09312023C0       Node_9312023     Node_12281230    170.00     0.0150     909.16     903.23     0          0

  
  ERROR 209: undefined object Node_9312022 at line 581 of [CONDUIT] section:
  09312022C0       Node_9312022     Node_12301232    150.00     0.0150     903.23     901.92     0          0

  
  ERROR 209: undefined object Node_9312021 at line 582 of [CONDUIT] section:
  09312021C0       Node_9312021     Node_12321201    40.00      0.0150     901.92     900.54     0          0

  
  ERROR 209: undefined object 9.00 at line 587 of [XSECT] section:
  09204000C2       IRREGULAR    9.00       0          0          0          1


  Analysis begun on:  Sat Mar  7 21:51:30 2026
  Analysis ended on:  Sat Mar  7 21:51:30 2026
  Total elapsed time: < 1 sec