
  EPA STORM WATER MANAGEMENT MODEL - VERSION 5.2 (Build 5.2.4)
  ------------------------------------------------------------

  
  ERROR 209: undefined object Node_151345 at line 1136 of [CONDUIT] section:
  151345           Node_151345      Node_11611162    112.00     0.0130     41.13      40.91      0          0

  
  ERROR 209: undefined object Node_151392 at line 1137 of [CONDUIT] section:
  151392           Node_151392      Node_11621163    300.00     0.0130     40.91      40.31      0          0

  
  ERROR 209: undefined object Node_152450 at line 1138 of [CONDUIT] section:
  152450           Node_152450      Node_12131214    24.00      0.0130     -0.97      -0.97      0          0

  
  ERROR 209: undefined object Node_146902 at line 1139 of [CONDUIT] section:
  146902           Node_146902      Node_11021106    151.00     0.0130     48.60      48.19      0          0

  
  ERROR 209: undefined object Node_151579 at line 1140 of [CONDUIT] section:
  151579           Node_151579      Node_11641165    134.91     0.0130     39.95      39.68      0          0

  
  ERROR 209: undefined object Node_151613 at line 1141 of [CONDUIT] section:
  151613           Node_151613      Node_11651166    247.76     0.0130     39.68      39.18      0          0

  
  ERROR 209: undefined object Node_151668 at line 1142 of [CONDUIT] section:
  151668           Node_151668      Node_11661167    100.00     0.0130     38.98      38.78      0          0

  
  ERROR 209: undefined object Node_154408 at line 1143 of [CONDUIT] section:
  154408           Node_154408      Node_12211222    164.76     0.0130     -3.43      -3.76      0          0

  
  ERROR 209: undefined object Node_152613 at line 1144 of [CONDUIT] section:
  152613           Node_152613      Node_12161208    226.37     0.0130     2.94       1.03       0          0

  
  ERROR 209: undefined object Node_152639 at line 1145 of [CONDUIT] section:
  152639           Node_152639      Node_12171216    87.00      0.0130     3.18       2.94       0          0

  
  ERROR 209: undefined object Node_152673 at line 1146 of [CONDUIT] section:
  152673           Node_152673      Node_12121213    451.00     0.0130     0.02       -0.97      0          0

  
  ERROR 209: undefined object Node_152583 at line 1147 of [CONDUIT] section:
  152583           Node_152583      Node_12111213    25.00      0.0130     -0.87      -0.97      0          0

  
  ERROR 209: undefined object Node_154403 at line 1148 of [CONDUIT] section:
  154403           Node_154403      Node_12201219    180.51     0.0130     -2.71      -3.07      0          0

  
  ERROR 209: undefined object Node_152582 at line 1149 of [CONDUIT] section:
  152582           Node_152582      Node_12101211    300.00     0.0130     -0.21      -0.87      0          0

  
  ERROR 209: undefined object Node_154426 at line 1150 of [CONDUIT] section:
  154426           Node_154426      Node_12231220    130.50     0.0130     -2.46      -2.71      0          0

  
  ERROR 209: undefined object Node_154443 at line 1151 of [CONDUIT] section:
  154443           Node_154443      Node_12241231    155.00     0.0130     -4.13      -4.69      0          0

  
  ERROR 209: undefined object Node_154451 at line 1153 of [CONDUIT] section:
  154451           Node_154451      Node_12251223    99.50      0.0130     -2.27      -2.46      0          0

  
  ERROR 209: undefined object Node_154454 at line 1154 of [CONDUIT] section:
  154454           Node_154454      Node_12261225    20.00      0.0130     -1.71      -2.27      0          0

  
  ERROR 209: undefined object Node_154459 at line 1156 of [CONDUIT] section:
  154459           Node_154459      Node_12291228    22.50      0.0130     -10.12     -14.67     0          0

  
  ERROR 209: undefined object Node_154401 at line 1157 of [CONDUIT] section:
  154401           Node_154401      Node_12191221    178.66     0.0130     -3.07      -3.43      0          0

  
  ERROR 209: undefined object Node_152478 at line 1158 of [CONDUIT] section:
  152478           Node_152478      Node_11951198    277.30     0.0130     2.11       1.42       0          0

  
  ERROR 209: undefined object Node_152513 at line 1159 of [CONDUIT] section:
  152513           Node_152513      Node_11971207    134.98     0.0130     1.39       1.09       0          0

  
  ERROR 209: undefined object Node_152515 at line 1160 of [CONDUIT] section:
  152515           Node_152515      Node_11981208    136.36     0.0130     1.42       1.03       0          0

  
  ERROR 209: undefined object Node_152471 at line 1161 of [CONDUIT] section:
  152471           Node_152471      Node_11941197    289.39     0.0130     2.02       1.39       0          0

  
  ERROR 209: undefined object Node_152565 at line 1162 of [CONDUIT] section:
  152565           Node_152565      Node_12071209    194.86     0.0130     1.09       0.45       0          0

  
  ERROR 209: undefined object Node_152572 at line 1163 of [CONDUIT] section:
  152572           Node_152572      Node_12081212    451.25     0.0130     1.03       0.02       0          0

  
  ERROR 209: undefined object Node_152576 at line 1164 of [CONDUIT] section:
  152576           Node_152576      Node_12091210    284.82     0.0130     0.45       -0.21      0          0

  
  ERROR 209: undefined object Node_150833 at line 1165 of [CONDUIT] section:
  150833           Node_150833      Node_11181119    292.05     0.0130     -0.42      -1.41      0          0

  
  ERROR 209: undefined object Node_151030 at line 1166 of [CONDUIT] section:
  151030           Node_151030      Node_11261127    69.75      0.0130     -3.61      -3.96      0          0

  
  ERROR 209: undefined object Node_150733 at line 1167 of [CONDUIT] section:
  150733           Node_150733      Node_11141115    136.00     0.0130     17.20      16.52      0          0

  
  ERROR 209: undefined object Node_150764 at line 1168 of [CONDUIT] section:
  150764           Node_150764      Node_11151116    33.38      0.0130     16.52      1.96       0          0

  
  ERROR 209: undefined object Node_150826 at line 1170 of [CONDUIT] section:
  150826           Node_150826      Node_11171118    139.00     0.0130     0.05       -0.42      0          0

  
  ERROR 209: undefined object Node_147131 at line 1171 of [CONDUIT] section:
  147131           Node_147131      Node_10191018    77.00      0.0130     78.20      76.56      0          0

  
  ERROR 209: undefined object Node_150866 at line 1172 of [CONDUIT] section:
  150866           Node_150866      Node_11191120    65.88      0.0130     -1.41      -1.63      0          0

  
  ERROR 209: undefined object Node_150882 at line 1173 of [CONDUIT] section:
  150882           Node_150882      Node_11201121    135.00     0.0130     -1.63      -2.09      0          0

  
  ERROR 209: undefined object Node_150935 at line 1174 of [CONDUIT] section:
  150935           Node_150935      Node_11211122    69.80      0.0130     -2.09      -2.32      0          0

  
  ERROR 209: undefined object Node_150957 at line 1175 of [CONDUIT] section:
  150957           Node_150957      Node_11221123    12.00      0.0130     -2.32      -2.36      0          0

  
  ERROR 209: undefined object Node_150967 at line 1176 of [CONDUIT] section:
  150967           Node_150967      Node_11231124    119.00     0.0130     -2.36      -2.74      0          0

  
  ERROR 209: undefined object Node_151002 at line 1177 of [CONDUIT] section:
  151002           Node_151002      Node_11241125    62.00      0.0130     -2.74      -2.97      0          0

  
  ERROR 209: undefined object Node_151515 at line 1178 of [CONDUIT] section:
  151515           Node_151515      Node_11631164    178.87     0.0130     40.31      39.95      0          0

  
  ERROR 209: undefined object Node_150779 at line 1179 of [CONDUIT] section:
  150779           Node_150779      Node_11161117    129.00     0.0130     1.96       0.05       0          0

  
  ERROR 209: undefined object Node_147047 at line 1180 of [CONDUIT] section:
  147047           Node_147047      Node_11101109    250.00     0.0130     52.09      50.34      0          0

  
  ERROR 209: undefined object Node_146910 at line 1181 of [CONDUIT] section:
  146910           Node_146910      Node_11031101    93.25      0.0130     46.15      45.50      0          0

  
  ERROR 209: undefined object Node_146942 at line 1183 of [CONDUIT] section:
  146942           Node_146942      Node_11051103    131.50     0.0130     47.07      46.15      0          0

  
  ERROR 209: undefined object Node_146964 at line 1184 of [CONDUIT] section:
  146964           Node_146964      Node_11061105    146.00     0.0130     48.19      47.07      0          0

  
  ERROR 209: undefined object Node_146971 at line 1185 of [CONDUIT] section:
  146971           Node_146971      Node_11071106    56.50      0.0130     48.59      48.19      0          0

  
  ERROR 209: undefined object Node_150656 at line 1186 of [CONDUIT] section:
  150656           Node_150656      Node_10401150    173.22     0.0130     53.59      52.31      0          0

  
  ERROR 209: undefined object Node_147008 at line 1187 of [CONDUIT] section:
  147008           Node_147008      Node_11091107    250.00     0.0130     50.34      48.59      0          0

  
  ERROR 209: undefined object Node_151052 at line 1188 of [CONDUIT] section:
  151052           Node_151052      Node_11271132    196.00     0.0130     -3.96      -9.92      0          0

  
  ERROR 209: undefined object Node_147049 at line 1189 of [CONDUIT] section:
  147049           Node_147049      Node_11111108    163.46     0.0130     36.73      36.24      0          0

  
  ERROR 209: undefined object Node_147073 at line 1190 of [CONDUIT] section:
  147073           Node_147073      Node_11121110    74.21      0.0130     52.24      52.09      0          0

  
  ERROR 209: undefined object Node_147084 at line 1191 of [CONDUIT] section:
  147084           Node_147084      Node_11131111    94.05      0.0130     40.39      36.73      0          0

  
  ERROR 209: undefined object Node_147126 at line 1192 of [CONDUIT] section:
  147126           Node_147126      Node_10181021    300.00     0.0130     76.56      75.54      0          0

  
  ERROR 209: undefined object Node_147127 at line 1193 of [CONDUIT] section:
  147127           Node_147127      Node_10721074    108.37     0.0130     40.57      37.91      0          0

  
  ERROR 209: undefined object Node_147130 at line 1194 of [CONDUIT] section:
  147130           Node_147130      Node_10431038    104.08     0.0130     73.85      71.56      0          0

  
  ERROR 209: undefined object Node_146983 at line 1195 of [CONDUIT] section:
  146983           Node_146983      Node_11081104    116.44     0.0130     36.24      35.89      0          0

  
  ERROR 209: undefined object Node_151233 at line 1196 of [CONDUIT] section:
  151233           Node_151233      Node_11531157    163.00     0.0130     44.94      44.22      0          0

  
  ERROR 209: undefined object Node_151172 at line 1197 of [CONDUIT] section:
  151172           Node_151172      Node_11461147    181.65     0.0130     47.49      45.34      0          0

  
  ERROR 209: undefined object Node_151017 at line 1198 of [CONDUIT] section:
  151017           Node_151017      Node_11251126    186.83     0.0130     -2.97      -3.61      0          0

  
  ERROR 209: undefined object Node_151191 at line 1199 of [CONDUIT] section:
  151191           Node_151191      Node_11481143    107.17     0.0130     -8.34      -8.70      0          0

  
  ERROR 209: undefined object Node_151193 at line 1200 of [CONDUIT] section:
  151193           Node_151193      Node_11491146    172.45     0.0130     49.59      47.49      0          0

  
  ERROR 209: undefined object Node_151196 at line 1201 of [CONDUIT] section:
  151196           Node_151196      Node_11501145    201.60     0.0130     52.31      50.72      0          0

  
  ERROR 209: undefined object Node_154463 at line 1202 of [CONDUIT] section:
  154463           Node_154463      Node_12301229    124.78     0.0130     -9.61      -10.12     0          0

  
  ERROR 209: undefined object Node_151228 at line 1203 of [CONDUIT] section:
  151228           Node_151228      Node_11521153    95.71      0.0130     45.35      44.94      0          0

  
  ERROR 209: undefined object Node_151166 at line 1204 of [CONDUIT] section:
  151166           Node_151166      Node_11451149    85.61      0.0130     50.72      49.59      0          0

  
  ERROR 209: undefined object Node_151241 at line 1205 of [CONDUIT] section:
  151241           Node_151241      Node_11541148    147.35     0.0130     -7.84      -8.34      0          0

  
  ERROR 209: undefined object Node_151247 at line 1206 of [CONDUIT] section:
  151247           Node_151247      Node_11551156    63.13      0.0130     41.99      41.65      0          0

  
  ERROR 209: undefined object Node_151261 at line 1207 of [CONDUIT] section:
  151261           Node_151261      Node_11561161    260.19     0.0130     41.65      41.13      0          0

  
  ERROR 209: undefined object Node_151263 at line 1208 of [CONDUIT] section:
  151263           Node_151263      Node_11571158    82.85      0.0130     44.22      43.86      0          0

  
  ERROR 209: undefined object Node_151294 at line 1209 of [CONDUIT] section:
  151294           Node_151294      Node_11581160    203.48     0.0130     43.86      42.96      0          0

  
  ERROR 209: undefined object Node_151299 at line 1210 of [CONDUIT] section:
  151299           Node_151299      Node_11591151    194.09     0.0130     -6.79      -7.45      0          0

  
  ERROR 209: undefined object Node_151339 at line 1211 of [CONDUIT] section:
  151339           Node_151339      Node_11601161    45.00      0.0130     42.96      41.13      0          0

  
  ERROR 209: undefined object Node_151226 at line 1212 of [CONDUIT] section:
  151226           Node_151226      Node_11511154    113.68     0.0130     -7.45      -7.84      0          0

  
  ERROR 209: undefined object Node_151109 at line 1213 of [CONDUIT] section:
  151109           Node_151109      Node_11361142    108.86     0.0130     44.72      44.37      0          0

  
  ERROR 209: undefined object Node_151055 at line 1214 of [CONDUIT] section:
  151055           Node_151055      Node_11281129    108.91     0.0130     49.41      48.50      0          0

  
  ERROR 209: undefined object Node_151061 at line 1215 of [CONDUIT] section:
  151061           Node_151061      Node_11291133    153.98     0.0130     48.50      44.95      0          0

  
  ERROR 209: undefined object Node_151068 at line 1216 of [CONDUIT] section:
  151068           Node_151068      Node_11301129    45.43      0.0130     50.19      48.50      0          0

  
  ERROR 209: undefined object Node_151079 at line 1217 of [CONDUIT] section:
  151079           Node_151079      Node_11311130    167.63     0.0130     50.93      50.19      0          0

  
  ERROR 209: undefined object Node_151090 at line 1218 of [CONDUIT] section:
  151090           Node_151090      Node_11331136    72.00      0.0130     44.95      44.72      0          0

  
  ERROR 209: undefined object Node_151183 at line 1219 of [CONDUIT] section:
  151183           Node_151183      Node_11471144    148.14     0.0130     45.34      43.02      0          0

  
  ERROR 209: undefined object Node_151105 at line 1220 of [CONDUIT] section:
  151105           Node_151105      Node_11351137    183.30     0.0130     -10.42     -11.17     0          0

  
  ERROR 209: undefined object Node_151153 at line 1221 of [CONDUIT] section:
  151153           Node_151153      Node_11441155    257.90     0.0130     43.02      41.99      0          0

  
  ERROR 209: undefined object Node_151112 at line 1222 of [CONDUIT] section:
  151112           Node_151112      Node_11371139    30.00      0.0130     -11.17     -16.40     0          0

  
  ERROR 209: undefined object Node_151124 at line 1223 of [CONDUIT] section:
  151124           Node_151124      Node_11321138    116.80     0.0130     -9.92      -10.22     0          0

  
  ERROR 209: undefined object Node_151125 at line 1224 of [CONDUIT] section:
  151125           Node_151125      Node_11381137    236.20     0.0130     -10.22     -11.17     0          0

  
  ERROR 209: undefined object Node_151139 at line 1225 of [CONDUIT] section:
  151139           Node_151139      Node_11401135    129.74     0.0130     -9.98      -10.42     0          0

  
  ERROR 209: undefined object Node_151141 at line 1226 of [CONDUIT] section:
  151141           Node_151141      Node_11411140    80.23      0.0130     -9.71      -9.98      0          0

  
  ERROR 209: undefined object Node_151146 at line 1227 of [CONDUIT] section:
  151146           Node_151146      Node_11421144    18.33      0.0130     44.37      43.02      0          0

  
  ERROR 209: undefined object Node_151147 at line 1228 of [CONDUIT] section:
  151147           Node_151147      Node_11431141    295.60     0.0130     -8.70      -9.71      0          0

  
  ERROR 209: undefined object Node_151096 at line 1229 of [CONDUIT] section:
  151096           Node_151096      Node_11341131    225.97     0.0130     51.92      50.93      0          0

  
  ERROR 209: undefined object Node_154455 at line 1247 of [CONDUIT] section:
  154455           Node_154455      Node_12271226    96.40      0.0130     0.96       -1.71      0          0

  
  ERROR 209: undefined object Node_154895 at line 1304 of [CONDUIT] section:
  154895           Node_154895      Node_12221224    180.69     0.0130     -3.76      -4.13      0          0

  
  ERROR 209: undefined object Node_154556 at line 1311 of [CONDUIT] section:
  154556           Node_154556      Node_1239741     223.84     0.0130     -5.39      -5.81      0          0

  
  ERROR 209: undefined object Node_154506 at line 1312 of [CONDUIT] section:
  154506           Node_154506      Node_12321233    175.95     0.0130     0.40       -1.11      0          0

  
  ERROR 209: undefined object Node_154513 at line 1313 of [CONDUIT] section:
  154513           Node_154513      Node_12331231    116.76     0.0130     -1.11      -4.69      0          0

  
  ERROR 209: undefined object Node_154526 at line 1314 of [CONDUIT] section:
  154526           Node_154526      Node_12341236    39.30      0.0130     -4.97      -5.02      0          0

  
  ERROR 209: undefined object Node_154533 at line 1315 of [CONDUIT] section:
  154533           Node_154533      Node_12351234    121.44     0.0130     -4.82      -4.97      0          0

  
  ERROR 209: undefined object Node_154537 at line 1316 of [CONDUIT] section:
  154537           Node_154537      Node_12361239    287.44     0.0130     -5.02      -5.39      0          0

  
  ERROR 209: undefined object Node_154554 at line 1318 of [CONDUIT] section:
  154554           Node_154554      Node_1238740     186.00     0.0130     -6.17      -6.32      0          0

  
  ERROR 209: undefined object Node_154542 at line 1327 of [CONDUIT] section:
  154542           Node_154542      Node_12371238    277.89     0.0130     -6.00      -6.17      0          0

  
  Maximum error count exceeded.

  Analysis begun on:  Sat Mar  7 21:51:27 2026
  Analysis ended on:  Sat Mar  7 21:51:27 2026
  Total elapsed time: < 1 sec