
  EPA STORM WATER MANAGEMENT MODEL - VERSION 5.2 (Build 5.2.4)
  ------------------------------------------------------------

  
  ERROR 211: invalid number  at line 105 of [XSECT] section:
  38               CIRCULAR     0          0          0          0          1

  
  ERROR 211: invalid number  at line 106 of [XSECT] section:
  39               CIRCULAR     0          0          0          0          1

  
  ERROR 211: invalid number  at line 107 of [XSECT] section:
  40               CIRCULAR     0          0          0          0          1

  
  ERROR 211: invalid number  at line 108 of [XSECT] section:
  41               CIRCULAR     0          0          0          0          1

  
  ERROR 211: invalid number  at line 109 of [XSECT] section:
  42               CIRCULAR     0          0          0          0          1

  
  ERROR 211: invalid number  at line 110 of [XSECT] section:
  43               CIRCULAR     0          0          0          0          1

  
  ERROR 211: invalid number  at line 111 of [XSECT] section:
  44               CIRCULAR     0          0          0          0          1

  
  ERROR 211: invalid number  at line 112 of [XSECT] section:
  45               CIRCULAR     0          0          0          0          1

  
  ERROR 211: invalid number  at line 113 of [XSECT] section:
  46               CIRCULAR     0          0          0          0          1

  
  ERROR 211: invalid number  at line 114 of [XSECT] section:
  47               CIRCULAR     0          0          0          0          1

  
  ERROR 211: invalid number  at line 115 of [XSECT] section:
  48               CIRCULAR     0          0          0          0          1

  
  ERROR 211: invalid number  at line 116 of [XSECT] section:
  50               CIRCULAR     0          0          0          0          1

  
  ERROR 211: invalid number  at line 117 of [XSECT] section:
  51               CIRCULAR     0          0          0          0          1

  
  ERROR 211: invalid number  at line 118 of [XSECT] section:
  52               CIRCULAR     0          0          0          0          1

  
  ERROR 211: invalid number  at line 119 of [XSECT] section:
  53               CIRCULAR     0          0          0          0          1

  
  ERROR 211: invalid number  at line 120 of [XSECT] section:
  54               CIRCULAR     0          0          0          0          1

  
  ERROR 211: invalid number  at line 121 of [XSECT] section:
  55               CIRCULAR     0          0          0          0          1

  
  ERROR 211: invalid number  at line 122 of [XSECT] section:
  56               CIRCULAR     0          0          0          0          1

  
  ERROR 211: invalid number  at line 123 of [XSECT] section:
  57               CIRCULAR     0          0          0          0          1

  
  ERROR 211: invalid number  at line 124 of [XSECT] section:
  58               CIRCULAR     0          0          0          0          1

  
  ERROR 211: invalid number  at line 125 of [XSECT] section:
  59               CIRCULAR     0          0          0          0          1

  
  ERROR 211: invalid number  at line 126 of [XSECT] section:
  60               CIRCULAR     0          0          0          0          1

  
  ERROR 211: invalid number  at line 127 of [XSECT] section:
  61               CIRCULAR     0          0          0          0          1

  
  ERROR 211: invalid number  at line 128 of [XSECT] section:
  62               CIRCULAR     0          0          0          0          1

  
  ERROR 211: invalid number  at line 129 of [XSECT] section:
  63               CIRCULAR     0          0          0          0          1

  
  ERROR 211: invalid number  at line 130 of [XSECT] section:
  64               CIRCULAR     0          0          0          0          1

  
  ERROR 211: invalid number  at line 131 of [XSECT] section:
  65               CIRCULAR     0          0          0          0          1

  
  ERROR 211: invalid number  at line 132 of [XSECT] section:
  66               CIRCULAR     0          0          0          0          1

  
  ERROR 211: invalid number  at line 133 of [XSECT] section:
  67               CIRCULAR     0          0          0          0          1

  
  ERROR 211: invalid number  at line 134 of [XSECT] section:
  68               CIRCULAR     0          0          0          0          1

  
  ERROR 211: invalid number  at line 135 of [XSECT] section:
  69               CIRCULAR     0          0          0          0          1

  
  ERROR 211: invalid number  at line 136 of [XSECT] section:
  70               CIRCULAR     0          0          0          0          1

  
  ERROR 211: invalid number  at line 137 of [XSECT] section:
  71               CIRCULAR     0          0          0          0          1

  
  ERROR 211: invalid number  at line 138 of [XSECT] section:
  72               CIRCULAR     0          0          0          0          1

  
  ERROR 211: invalid number  at line 139 of [XSECT] section:
  73               CIRCULAR     0          0          0          0          1

  
  ERROR 211: invalid number  at line 140 of [XSECT] section:
  74               CIRCULAR     0          0          0          0          1

  
  ERROR 211: invalid number  at line 141 of [XSECT] section:
  75               CIRCULAR     0          0          0          0          1


  Analysis begun on:  Sat Mar  7 21:51:33 2026
  Analysis ended on:  Sat Mar  7 21:51:33 2026
  Total elapsed time: < 1 sec