
  EPA STORM WATER MANAGEMENT MODEL - VERSION 5.2 (Build 5.2.4)
  ------------------------------------------------------------

  
  ERROR 209: undefined object ? at line 34 of [CONDUIT] section:
  179              ?                ?                100.00     0.0140     48.00      47.50      0          0

  
  ERROR 209: undefined object ? at line 35 of [CONDUIT] section:
  181              ?                ?                14.00      0.0140     47.50      47.20      0          0

  
  ERROR 209: undefined object ? at line 36 of [CONDUIT] section:
  183              ?                ?                100.00     0.0140     48.00      47.50      0          0

  
  ERROR 209: undefined object ? at line 37 of [CONDUIT] section:
  185              ?                ?                150.00     0.0140     47.20      47.00      0          0


  Analysis begun on:  Sat Mar  7 21:51:32 2026
  Analysis ended on:  Sat Mar  7 21:51:32 2026
  Total elapsed time: < 1 sec