
  EPA STORM WATER MANAGEMENT MODEL - VERSION 5.2 (Build 5.2.4)
  ------------------------------------------------------------

  
  ERROR 209: undefined object 13.29 at line 116 of [XSECT] section:
  PL1              IRREGULAR    13.29      0          0          0          1

  
  ERROR 209: undefined object 9.34 at line 117 of [XSECT] section:
  PL5              IRREGULAR    9.34       0          0          0          1

  
  ERROR 209: undefined object 8.40 at line 118 of [XSECT] section:
  PL12             IRREGULAR    8.40       0          0          0          1

  
  ERROR 209: undefined object 7.95 at line 119 of [XSECT] section:
  PL22             IRREGULAR    7.95       0          0          0          1

  
  ERROR 209: undefined object 8.28 at line 120 of [XSECT] section:
  PL26             IRREGULAR    8.28       0          0          0          1

  
  ERROR 209: undefined object 6.90 at line 121 of [XSECT] section:
  PL27             IRREGULAR    6.90       0          0          0          1

  
  ERROR 209: undefined object 7.20 at line 122 of [XSECT] section:
  PL30             IRREGULAR    7.20       0          0          0          1

  
  ERROR 209: undefined object 8.81 at line 123 of [XSECT] section:
  PL31             IRREGULAR    8.81       0          0          0          1

  
  ERROR 209: undefined object 4.93 at line 124 of [XSECT] section:
  PL32             IRREGULAR    4.93       0          0          0          1

  
  ERROR 209: undefined object 5.74 at line 125 of [XSECT] section:
  PL37             IRREGULAR    5.74       0          0          0          1

  
  ERROR 209: undefined object 4.26 at line 126 of [XSECT] section:
  PL38             IRREGULAR    4.26       0          0          0          1

  
  ERROR 209: undefined object 3.26 at line 127 of [XSECT] section:
  PL41             IRREGULAR    3.26       0          0          0          1

  
  ERROR 209: undefined object 5.86 at line 128 of [XSECT] section:
  PL45             IRREGULAR    5.86       0          0          0          1

  
  ERROR 209: undefined object 3.85 at line 129 of [XSECT] section:
  PL46             IRREGULAR    3.85       0          0          0          1

  
  ERROR 209: undefined object 4.55 at line 130 of [XSECT] section:
  PL48             IRREGULAR    4.55       0          0          0          1

  
  ERROR 209: undefined object 3.55 at line 131 of [XSECT] section:
  PL50             IRREGULAR    3.55       0          0          0          1

  
  ERROR 209: undefined object 3.72 at line 132 of [XSECT] section:
  PL56             IRREGULAR    3.72       0          0          0          1

  
  ERROR 209: undefined object 3.32 at line 133 of [XSECT] section:
  PL57             IRREGULAR    3.32       0          0          0          1

  
  ERROR 209: undefined object 2.24 at line 134 of [XSECT] section:
  PL60             IRREGULAR    2.24       0          0          0          1

  
  ERROR 209: undefined object 1.74 at line 135 of [XSECT] section:
  PL63             IRREGULAR    1.74       0          0          0          1

  
  ERROR 209: undefined object 3.89 at line 136 of [XSECT] section:
  PL64             IRREGULAR    3.89       0          0          0          1

  
  ERROR 209: undefined object 3.03 at line 137 of [XSECT] section:
  PL67             IRREGULAR    3.03       0          0          0          1

  
  ERROR 209: undefined object 3.83 at line 138 of [XSECT] section:
  PL68             IRREGULAR    3.83       0          0          0          1

  
  ERROR 209: undefined object 1.95 at line 139 of [XSECT] section:
  PL78             IRREGULAR    1.95       0          0          0          1

  
  ERROR 209: undefined object 3.75 at line 140 of [XSECT] section:
  PL79             IRREGULAR    3.75       0          0          0          1

  
  ERROR 209: undefined object 3.33 at line 141 of [XSECT] section:
  PL80             IRREGULAR    3.33       0          0          0          1

  
  ERROR 209: undefined object 2.75 at line 142 of [XSECT] section:
  PL81             IRREGULAR    2.75       0          0          0          1

  
  ERROR 209: undefined object 2.41 at line 143 of [XSECT] section:
  PL82             IRREGULAR    2.41       0          0          0          1

  
  ERROR 209: undefined object 2.70 at line 144 of [XSECT] section:
  PL83             IRREGULAR    2.70       0          0          0          1

  
  ERROR 209: undefined object 2.42 at line 145 of [XSECT] section:
  PL85             IRREGULAR    2.42       0          0          0          1

  
  ERROR 209: undefined object 2.09 at line 146 of [XSECT] section:
  PL77             IRREGULAR    2.09       0          0          0          1

  
  ERROR 209: undefined object 2.82 at line 148 of [XSECT] section:
  PL561            IRREGULAR    2.82       0          0          0          1

  
  ERROR 209: undefined object 3.66 at line 150 of [XSECT] section:
  PL611            IRREGULAR    3.66       0          0          0          1

  
  ERROR 209: undefined object 2.88 at line 154 of [XSECT] section:
  PL731            IRREGULAR    2.88       0          0          0          1

  
  ERROR 209: undefined object 2.70 at line 155 of [XSECT] section:
  PL821            IRREGULAR    2.70       0          0          0          1


  Analysis begun on:  Sat Mar  7 21:51:31 2026
  Analysis ended on:  Sat Mar  7 21:51:31 2026
  Total elapsed time: < 1 sec