
  EPA STORM WATER MANAGEMENT MODEL - VERSION 5.2 (Build 5.2.4)
  ------------------------------------------------------------

  
  ERROR 207: duplicate ID name cat at line 26 of [JUNC] section:
  cat              0          0          0          0          0

  
  ERROR 207: duplicate ID name 0 at line 32 of [CONDUIT] section:
  0                conflu           outlet           0          0          0          0          0          0

  
  ERROR 207: duplicate ID name 0 at line 33 of [CONDUIT] section:
  0                cat              conflu           0          0          0          0          0          0


  Analysis begun on:  Sat Mar  7 21:51:30 2026
  Analysis ended on:  Sat Mar  7 21:51:30 2026
  Total elapsed time: < 1 sec