
  EPA STORM WATER MANAGEMENT MODEL - VERSION 5.2 (Build 5.2.4)
  ------------------------------------------------------------

  
  ERROR 209: undefined object 0 at line 90 of [XSECT] section:
  FC-C-1           IRREGULAR    0          0          0          0          1

  
  ERROR 209: undefined object 0 at line 92 of [XSECT] section:
  FC-C-2           IRREGULAR    0          0          0          0          1

  
  ERROR 209: undefined object 0 at line 94 of [XSECT] section:
  FC-C-3           IRREGULAR    0          0          0          0          1

  
  ERROR 209: undefined object 0 at line 96 of [XSECT] section:
  FC-C-4           IRREGULAR    0          0          0          0          1

  
  ERROR 209: undefined object 0 at line 98 of [XSECT] section:
  FC-C-5           IRREGULAR    0          0          0          0          1

  
  ERROR 211: invalid number  at line 99 of [XSECT] section:
  639              CIRCULAR     0          0          0          0          1

  
  ERROR 211: invalid number  at line 101 of [XSECT] section:
  W-S-1            RECT_OPEN    0          500.00     0          0          

  
  ERROR 211: invalid number  at line 102 of [XSECT] section:
  W-S-2            RECT_OPEN    0          2610.00    0          0          

  
  ERROR 211: invalid number  at line 103 of [XSECT] section:
  W-N-1            RECT_OPEN    0          500.00     0          0          

  
  ERROR 211: invalid number  at line 104 of [XSECT] section:
  W-N-2            RECT_OPEN    0          1100.00    0          0          

  
  ERROR 211: invalid number  at line 105 of [XSECT] section:
  W-N-3            RECT_OPEN    0          2600.00    0          0          

  
  ERROR 211: invalid number  at line 106 of [XSECT] section:
  W-N-1-2          RECT_OPEN    0          2670.00    0          0          

  
  ERROR 211: invalid number  at line 107 of [XSECT] section:
  FC-N-2-3         RECT_OPEN    0          2650.00    0          0          

  
  ERROR 211: invalid number  at line 108 of [XSECT] section:
  FC-S-1-2         RECT_OPEN    0          5260.00    0          0          

  
  ERROR 211: invalid number  at line 109 of [XSECT] section:
  W-S-3            RECT_OPEN    0          2570.00    0          0          

  
  ERROR 211: invalid number  at line 110 of [XSECT] section:
  W-N-4            RECT_OPEN    0          2600.00    0          0          

  
  ERROR 211: invalid number  at line 111 of [XSECT] section:
  W-S-4            RECT_OPEN    0          5280.00    0          0          

  
  ERROR 211: invalid number  at line 112 of [XSECT] section:
  FC-S-2-3         RECT_OPEN    0          5260.00    0          0          

  
  ERROR 211: invalid number  at line 113 of [XSECT] section:
  FC-S-3-4         RECT_OPEN    0          5260.00    0          0          


  Analysis begun on:  Sat Mar  7 21:51:25 2026
  Analysis ended on:  Sat Mar  7 21:51:25 2026
  Total elapsed time: < 1 sec