
  EPA STORM WATER MANAGEMENT MODEL - VERSION 5.2 (Build 5.2.4)
  ------------------------------------------------------------

  
  ERROR 209: undefined object ? at line 203 of [CONDUIT] section:
  206              ?                ?                176.00     0.0182     32.78      32.23      0          0

  
  ERROR 209: undefined object ? at line 204 of [CONDUIT] section:
  208              ?                ?                105.00     0.0182     32.23      31.48      0          0

  
  ERROR 209: undefined object ? at line 205 of [CONDUIT] section:
  210              ?                ?                130.00     0.0173     31.48      30.49      0          0

  
  ERROR 209: undefined object ? at line 206 of [CONDUIT] section:
  212              ?                ?                119.00     0.0173     30.49      29.65      0          0

  
  ERROR 209: undefined object ? at line 207 of [CONDUIT] section:
  214              ?                ?                80.00      0.0173     29.65      29.02      0          0

  
  ERROR 209: undefined object ? at line 208 of [CONDUIT] section:
  216              ?                ?                320.00     0.0173     29.02      26.58      0          0

  
  ERROR 209: undefined object ? at line 209 of [CONDUIT] section:
  218              ?                ?                106.00     0.0173     26.58      25.65      0          0

  
  ERROR 209: undefined object ? at line 210 of [CONDUIT] section:
  220              ?                ?                330.00     0.0173     25.65      24.09      0          0

  
  ERROR 209: undefined object ? at line 211 of [CONDUIT] section:
  224              ?                ?                47.00      0.0182     22.96      22.72      0          0

  
  ERROR 209: undefined object ? at line 212 of [CONDUIT] section:
  228              ?                ?                77.00      0.0173     19.59      19.35      0          0

  
  ERROR 209: undefined object ? at line 213 of [CONDUIT] section:
  232              ?                ?                214.00     0.0182     18.57      17.91      0          0

  
  ERROR 209: undefined object ? at line 214 of [CONDUIT] section:
  236              ?                ?                114.00     0.0140     17.37      17.05      0          0

  
  ERROR 209: undefined object ? at line 215 of [CONDUIT] section:
  238              ?                ?                109.00     0.0182     17.05      16.45      0          0

  
  ERROR 209: undefined object ? at line 216 of [CONDUIT] section:
  240              ?                ?                285.00     0.0137     16.45      16.10      0          0

  
  ERROR 209: undefined object ? at line 217 of [CONDUIT] section:
  243              ?                ?                20.00      0.0137     16.10      16.04      0          0

  
  ERROR 209: undefined object ? at line 218 of [CONDUIT] section:
  245              ?                ?                74.00      0.0137     16.04      15.95      0          0

  
  ERROR 209: undefined object ? at line 219 of [CONDUIT] section:
  247              ?                ?                76.00      0.0137     15.95      15.87      0          0

  
  ERROR 209: undefined object ? at line 220 of [CONDUIT] section:
  249              ?                ?                95.00      0.0137     15.87      15.76      0          0

  
  ERROR 209: undefined object ? at line 221 of [CONDUIT] section:
  252              ?                ?                205.00     0.0182     17.69      17.08      0          0

  
  ERROR 209: undefined object ? at line 222 of [CONDUIT] section:
  254              ?                ?                105.00     0.0182     17.08      16.77      0          0

  
  ERROR 209: undefined object ? at line 223 of [CONDUIT] section:
  255              ?                ?                185.00     0.0182     16.77      15.95      0          0

  
  ERROR 209: undefined object ? at line 224 of [CONDUIT] section:
  259              ?                ?                125.00     0.0182     18.98      18.57      0          0

  
  ERROR 209: undefined object ? at line 225 of [CONDUIT] section:
  286              ?                ?                134.00     0.0162     17.79      16.99      0          0

  
  ERROR 209: undefined object ? at line 226 of [CONDUIT] section:
  288              ?                ?                142.00     0.0173     18.28      17.79      0          0

  
  ERROR 209: undefined object ? at line 227 of [CONDUIT] section:
  289              ?                ?                282.00     0.0173     19.35      18.28      0          0

  
  ERROR 209: undefined object ? at line 228 of [CONDUIT] section:
  292              ?                ?                89.00      0.0182     27.05      26.58      0          0

  
  ERROR 209: undefined object ? at line 229 of [CONDUIT] section:
  294              ?                ?                117.00     0.0173     26.58      25.97      0          0

  
  ERROR 209: undefined object ? at line 230 of [CONDUIT] section:
  295              ?                ?                75.00      0.0173     25.97      25.65      0          0

  
  ERROR 209: undefined object ? at line 231 of [CONDUIT] section:
  297              ?                ?                555.00     0.0173     24.09      21.32      0          0

  
  ERROR 209: undefined object ? at line 232 of [CONDUIT] section:
  299              ?                ?                96.00      0.0162     21.32      20.93      0          0

  
  ERROR 209: undefined object ? at line 233 of [CONDUIT] section:
  300              ?                ?                205.00     0.0162     20.93      20.00      0          0

  
  ERROR 209: undefined object ? at line 234 of [CONDUIT] section:
  304              ?                ?                125.00     0.0182     25.93      25.35      0          0

  
  ERROR 209: undefined object ? at line 235 of [CONDUIT] section:
  306              ?                ?                150.00     0.0173     25.35      24.82      0          0

  
  ERROR 209: undefined object ? at line 236 of [CONDUIT] section:
  308              ?                ?                75.00      0.0173     24.82      24.45      0          0

  
  ERROR 209: undefined object ? at line 237 of [CONDUIT] section:
  310              ?                ?                150.00     0.0173     24.45      23.49      0          0

  
  ERROR 209: undefined object ? at line 238 of [CONDUIT] section:
  312              ?                ?                67.00      0.0173     23.49      23.32      0          0

  
  ERROR 209: undefined object ? at line 239 of [CONDUIT] section:
  314              ?                ?                93.00      0.0173     23.32      22.72      0          0

  
  ERROR 209: undefined object ? at line 240 of [CONDUIT] section:
  316              ?                ?                74.00      0.0162     22.72      22.48      0          0

  
  ERROR 209: undefined object ? at line 241 of [CONDUIT] section:
  321              ?                ?                70.00      0.0162     21.69      21.32      0          0

  
  ERROR 209: undefined object ? at line 242 of [CONDUIT] section:
  323              ?                ?                195.00     0.0140     32.38      31.38      0          0

  
  ERROR 209: undefined object ? at line 243 of [CONDUIT] section:
  325              ?                ?                177.00     0.0140     31.38      30.64      0          0

  
  ERROR 209: undefined object ? at line 244 of [CONDUIT] section:
  327              ?                ?                90.00      0.0140     30.64      30.28      0          0

  
  ERROR 209: undefined object ? at line 245 of [CONDUIT] section:
  329              ?                ?                136.00     0.0140     30.28      29.65      0          0

  
  ERROR 209: undefined object ? at line 246 of [CONDUIT] section:
  333              ?                ?                154.00     0.0182     29.18      28.67      0          0

  
  ERROR 209: undefined object ? at line 247 of [CONDUIT] section:
  335              ?                ?                115.00     0.0182     28.67      27.97      0          0

  
  ERROR 209: undefined object ? at line 248 of [CONDUIT] section:
  337              ?                ?                59.00      0.0173     27.97      27.77      0          0

  
  ERROR 209: undefined object ? at line 249 of [CONDUIT] section:
  339              ?                ?                189.00     0.0173     27.77      27.11      0          0

  
  ERROR 209: undefined object ? at line 250 of [CONDUIT] section:
  341              ?                ?                426.00     0.0182     27.11      23.02      0          0

  
  ERROR 209: undefined object ? at line 251 of [CONDUIT] section:
  343              ?                ?                122.00     0.0182     23.15      21.94      0          0

  
  ERROR 209: undefined object ? at line 252 of [CONDUIT] section:
  344              ?                ?                80.00      0.0182     21.94      21.69      0          0

  
  ERROR 209: undefined object ? at line 253 of [CONDUIT] section:
  352              ?                ?                213.00     0.0173     21.32      20.38      0          0

  
  ERROR 209: undefined object ? at line 254 of [CONDUIT] section:
  353              ?                ?                70.00      0.0173     20.38      20.10      0          0

  
  ERROR 209: undefined object ? at line 255 of [CONDUIT] section:
  356              ?                ?                140.00     0.0182     32.13      31.41      0          0

  
  ERROR 209: undefined object ? at line 256 of [CONDUIT] section:
  358              ?                ?                156.00     0.0182     31.41      30.89      0          0

  
  ERROR 209: undefined object ? at line 257 of [CONDUIT] section:
  360              ?                ?                107.00     0.0173     30.89      30.39      0          0

  
  ERROR 209: undefined object ? at line 258 of [CONDUIT] section:
  362              ?                ?                210.00     0.0182     30.39      29.63      0          0

  
  ERROR 209: undefined object ? at line 259 of [CONDUIT] section:
  364              ?                ?                92.00      0.0173     29.41      29.08      0          0

  
  ERROR 209: undefined object ? at line 260 of [CONDUIT] section:
  366              ?                ?                106.00     0.0173     29.08      28.66      0          0

  
  ERROR 209: undefined object ? at line 261 of [CONDUIT] section:
  367              ?                ?                152.00     0.0173     28.66      27.97      0          0

  
  ERROR 209: undefined object ? at line 262 of [CONDUIT] section:
  370              ?                ?                115.00     0.0140     34.63      34.11      0          0

  
  ERROR 209: undefined object ? at line 263 of [CONDUIT] section:
  372              ?                ?                102.00     0.0140     34.11      33.66      0          0

  
  ERROR 209: undefined object ? at line 264 of [CONDUIT] section:
  374              ?                ?                99.00      0.0140     33.66      33.30      0          0

  
  ERROR 209: undefined object ? at line 265 of [CONDUIT] section:
  376              ?                ?                102.00     0.0182     33.30      32.96      0          0

  
  ERROR 209: undefined object ? at line 266 of [CONDUIT] section:
  377              ?                ?                40.00      0.0182     32.96      32.78      0          0

  
  ERROR 209: undefined object ? at line 267 of [CONDUIT] section:
  380              ?                ?                148.00     0.0182     33.61      32.92      0          0

  
  ERROR 209: undefined object ? at line 268 of [CONDUIT] section:
  381              ?                ?                143.00     0.0182     32.92      32.00      0          0

  
  ERROR 209: undefined object ? at line 269 of [CONDUIT] section:
  384              ?                ?                106.00     0.0140     33.07      32.75      0          0

  
  ERROR 209: undefined object ? at line 270 of [CONDUIT] section:
  386              ?                ?                210.00     0.0140     32.75      31.84      0          0

  
  ERROR 209: undefined object ? at line 271 of [CONDUIT] section:
  388              ?                ?                125.00     0.0140     31.84      31.49      0          0

  
  ERROR 209: undefined object ? at line 272 of [CONDUIT] section:
  389              ?                ?                129.00     0.0140     31.49      30.83      0          0

  
  ERROR 209: undefined object ? at line 273 of [CONDUIT] section:
  391              ?                ?                412.00     0.0140     31.37      29.65      0          0

  
  ERROR 209: undefined object ? at line 274 of [CONDUIT] section:
  395              ?                ?                147.00     0.0140     29.55      28.90      0          0

  
  ERROR 209: undefined object ? at line 275 of [CONDUIT] section:
  397              ?                ?                418.00     0.0140     28.90      25.38      0          0

  
  ERROR 209: undefined object ? at line 276 of [CONDUIT] section:
  398              ?                ?                138.00     0.0182     25.38      24.45      0          0

  
  ERROR 209: undefined object ? at line 277 of [CONDUIT] section:
  429              ?                ?                120.00     0.0182     35.13      34.64      0          0

  
  ERROR 209: undefined object ? at line 278 of [CONDUIT] section:
  430              ?                ?                195.00     0.0182     34.64      33.30      0          0

  
  ERROR 209: undefined object ? at line 279 of [CONDUIT] section:
  434              ?                ?                198.00     0.0182     34.15      32.96      0          0

  
  ERROR 209: undefined object ? at line 280 of [CONDUIT] section:
  435              ?                ?                103.00     0.0182     34.64      34.15      0          0

  
  ERROR 209: undefined object ? at line 281 of [CONDUIT] section:
  437              ?                ?                110.00     0.0182     34.23      33.57      0          0

  
  ERROR 209: undefined object ? at line 282 of [CONDUIT] section:
  440              ?                ?                308.00     0.0182     33.57      32.13      0          0

  
  ERROR 209: undefined object ? at line 283 of [CONDUIT] section:
  447              ?                ?                167.00     0.0182     33.85      33.50      0          0

  
  ERROR 209: undefined object ? at line 284 of [CONDUIT] section:
  448              ?                ?                325.00     0.0182     33.50      31.41      0          0

  
  ERROR 209: undefined object ? at line 285 of [CONDUIT] section:
  475              ?                ?                365.00     0.0140     31.26      29.79      0          0

  
  ERROR 209: undefined object ? at line 286 of [CONDUIT] section:
  477              ?                ?                110.00     0.0182     29.79      29.22      0          0

  
  ERROR 209: undefined object ? at line 287 of [CONDUIT] section:
  478              ?                ?                40.00      0.0182     29.22      29.08      0          0

  
  ERROR 209: undefined object ? at line 288 of [CONDUIT] section:
  483              ?                ?                103.00     0.0182     34.12      33.83      0          0

  
  ERROR 209: undefined object ? at line 289 of [CONDUIT] section:
  484              ?                ?                103.00     0.0182     33.83      33.61      0          0

  
  ERROR 209: undefined object ? at line 290 of [CONDUIT] section:
  488              ?                ?                245.00     0.0182     33.80      32.37      0          0

  
  ERROR 209: undefined object ? at line 291 of [CONDUIT] section:
  492              ?                ?                133.00     0.0140     31.78      31.04      0          0

  
  ERROR 209: undefined object ? at line 292 of [CONDUIT] section:
  494              ?                ?                90.00      0.0140     30.38      30.28      0          0

  
  ERROR 209: undefined object ? at line 293 of [CONDUIT] section:
  496              ?                ?                143.00     0.0140     30.15      29.65      0          0

  
  ERROR 209: undefined object ? at line 294 of [CONDUIT] section:
  499              ?                ?                98.00      0.0140     30.43      29.70      0          0

  
  ERROR 209: undefined object ? at line 295 of [CONDUIT] section:
  500              ?                ?                70.00      0.0182     29.70      29.18      0          0

  
  ERROR 209: undefined object ? at line 296 of [CONDUIT] section:
  503              ?                ?                135.00     0.0182     28.74      28.17      0          0

  
  ERROR 209: undefined object ? at line 297 of [CONDUIT] section:
  505              ?                ?                393.00     0.0182     28.17      24.53      0          0

  
  ERROR 209: undefined object ? at line 298 of [CONDUIT] section:
  506              ?                ?                195.00     0.0182     24.53      22.72      0          0

  
  ERROR 209: undefined object ? at line 299 of [CONDUIT] section:
  510              ?                ?                163.00     0.0182     24.90      23.59      0          0

  
  ERROR 209: undefined object ? at line 300 of [CONDUIT] section:
  513              ?                ?                293.00     0.0140     27.64      25.04      0          0

  
  ERROR 209: undefined object ? at line 301 of [CONDUIT] section:
  516              ?                ?                475.00     0.0140     24.88      20.38      0          0

  
  ERROR 209: undefined object ? at line 302 of [CONDUIT] section:
  519              ?                ?                278.00     0.0140     29.62      28.26      0          0

  
  Maximum error count exceeded.

  Analysis begun on:  Sat Mar  7 21:51:31 2026
  Analysis ended on:  Sat Mar  7 21:51:31 2026
  Total elapsed time: < 1 sec