
  EPA STORM WATER MANAGEMENT MODEL - VERSION 5.2 (Build 5.2.4)
  ------------------------------------------------------------

  
  ERROR 209: undefined object Node_91 at line 331 of [CONDUIT] section:
  P91A17           Node_91          Node_18001801    0          0          0          0          0          0

  
  ERROR 209: undefined object Node_91 at line 332 of [CONDUIT] section:
  P91A18           Node_91          Node_18011802    0          0          0          0          0          0

  
  ERROR 209: undefined object Node_91 at line 333 of [CONDUIT] section:
  P91A19           Node_91          Node_18021803    0          0          0          0          0          0

  
  ERROR 209: undefined object Node_91 at line 334 of [CONDUIT] section:
  P91A20           Node_91          Node_18031804    0          0          0          0          0          0

  
  ERROR 209: undefined object Node_91 at line 335 of [CONDUIT] section:
  P91A21           Node_91          Node_18041805    0          0          0          0          0          0

  
  ERROR 209: undefined object Node_91 at line 336 of [CONDUIT] section:
  P91A22           Node_91          Node_18051806    0          0          0          0          0          0

  
  ERROR 209: undefined object Node_91 at line 337 of [CONDUIT] section:
  P91A24           Node_91          Node_18061807    0          0          0          0          0          0

  
  ERROR 209: undefined object Node_91 at line 338 of [CONDUIT] section:
  P91A25           Node_91          Node_18071853    0          0          0          0          0          0

  
  ERROR 209: undefined object Node_91 at line 339 of [CONDUIT] section:
  P91A30           Node_91          Node_18081809    0          0          0          0          0          0

  
  ERROR 209: undefined object Node_91 at line 340 of [CONDUIT] section:
  P91A31           Node_91          Node_18091810    0          0          0          0          0          0

  
  ERROR 209: undefined object Node_91 at line 341 of [CONDUIT] section:
  P91A32           Node_91          Node_18101811    0          0          0          0          0          0

  
  ERROR 209: undefined object Node_91 at line 342 of [CONDUIT] section:
  P91A33           Node_91          Node_18111812    0          0          0          0          0          0

  
  ERROR 209: undefined object Node_91 at line 343 of [CONDUIT] section:
  P91A34           Node_91          Node_18121813    0          0          0          0          0          0

  
  ERROR 209: undefined object Node_91 at line 344 of [CONDUIT] section:
  P91A35           Node_91          Node_18131814    0          0          0          0          0          0

  
  ERROR 209: undefined object Node_91 at line 345 of [CONDUIT] section:
  P91A36           Node_91          Node_18141815    0          0          0          0          0          0

  
  ERROR 209: undefined object Node_91 at line 346 of [CONDUIT] section:
  P91A40           Node_91          Node_18161817    0          0          0          0          0          0

  
  ERROR 209: undefined object Node_91 at line 347 of [CONDUIT] section:
  P91A41           Node_91          Node_18171818    0          0          0          0          0          0

  
  ERROR 209: undefined object Node_91 at line 348 of [CONDUIT] section:
  P91A42           Node_91          Node_18181819    0          0          0          0          0          0

  
  ERROR 209: undefined object Node_91 at line 349 of [CONDUIT] section:
  P91A43           Node_91          Node_18191820    0          0          0          0          0          0

  
  ERROR 209: undefined object Node_91 at line 350 of [CONDUIT] section:
  P91A44           Node_91          Node_182018      0          0          0          0          0          0

  
  ERROR 209: undefined object Node_91 at line 351 of [CONDUIT] section:
  P91A45           Node_91          Node_18211822    0          0          0          0          0          0

  
  ERROR 209: undefined object Node_91 at line 352 of [CONDUIT] section:
  P91A46           Node_91          Node_18221830    0          0          0          0          0          0

  
  ERROR 209: undefined object Node_50 at line 353 of [CONDUIT] section:
  P91A50           Node_50          Node_18231824    0          0          0          0          0          0

  
  ERROR 209: undefined object Node_51 at line 354 of [CONDUIT] section:
  P91A51           Node_51          Node_18241825    0          0          0          0          0          0

  
  ERROR 209: undefined object Node_52 at line 355 of [CONDUIT] section:
  P91A52           Node_52          Node_18251826    0          0          0          0          0          0

  
  ERROR 209: undefined object Node_53 at line 356 of [CONDUIT] section:
  P91A53           Node_53          Node_18261827    0          0          0          0          0          0

  
  ERROR 209: undefined object Node_54 at line 357 of [CONDUIT] section:
  P91A54           Node_54          Node_18271828    0          0          0          0          0          0

  
  ERROR 209: undefined object Node_55 at line 358 of [CONDUIT] section:
  P91A55           Node_55          Node_18281829    0          0          0          0          0          0

  
  ERROR 209: undefined object Node_56 at line 359 of [CONDUIT] section:
  P91A56           Node_56          Node_18291830    0          0          0          0          0          0

  
  ERROR 209: undefined object Node_57 at line 360 of [CONDUIT] section:
  P91A57           Node_57          Node_18301836    0          0          0          0          0          0

  
  ERROR 209: undefined object Node_60 at line 361 of [CONDUIT] section:
  P91A60           Node_60          Node_18311832    0          0          0          0          0          0

  
  ERROR 209: undefined object Node_61 at line 362 of [CONDUIT] section:
  P91A61           Node_61          Node_18321833    0          0          0          0          0          0

  
  ERROR 209: undefined object Node_62 at line 363 of [CONDUIT] section:
  P91A62           Node_62          Node_18331834    0          0          0          0          0          0

  
  ERROR 209: undefined object Node_63 at line 364 of [CONDUIT] section:
  P91A63           Node_63          Node_18341835    0          0          0          0          0          0

  
  ERROR 209: undefined object Node_64 at line 365 of [CONDUIT] section:
  P91A64           Node_64          Node_18351836    0          0          0          0          0          0

  
  ERROR 209: undefined object Node_65 at line 366 of [CONDUIT] section:
  P91A65           Node_65          Node_18361842    0          0          0          0          0          0

  
  ERROR 209: undefined object Node_70 at line 367 of [CONDUIT] section:
  P91A70           Node_70          Node_18371838    0          0          0          0          0          0

  
  ERROR 209: undefined object Node_71 at line 368 of [CONDUIT] section:
  P91A71           Node_71          Node_18381839    0          0          0          0          0          0

  
  ERROR 209: undefined object Node_72 at line 369 of [CONDUIT] section:
  P91A72           Node_72          Node_18391840    0          0          0          0          0          0

  
  ERROR 209: undefined object Node_73 at line 370 of [CONDUIT] section:
  P91A73           Node_73          Node_18401841    0          0          0          0          0          0

  
  ERROR 209: undefined object Node_74 at line 371 of [CONDUIT] section:
  P91A74           Node_74          Node_18411842    0          0          0          0          0          0

  
  ERROR 209: undefined object Node_75 at line 372 of [CONDUIT] section:
  P91A75           Node_75          Node_18421852    0          0          0          0          0          0

  
  ERROR 209: undefined object Node_80 at line 373 of [CONDUIT] section:
  P91A80           Node_80          Node_18431845    0          0          0          0          0          0

  
  ERROR 209: undefined object Node_81 at line 374 of [CONDUIT] section:
  P91A81           Node_81          Node_18441845    0          0          0          0          0          0

  
  ERROR 209: undefined object Node_82 at line 375 of [CONDUIT] section:
  P91A82           Node_82          Node_18451847    0          0          0          0          0          0

  
  ERROR 209: undefined object Node_83 at line 376 of [CONDUIT] section:
  P91A83           Node_83          Node_18461847    0          0          0          0          0          0

  
  ERROR 209: undefined object Node_84 at line 377 of [CONDUIT] section:
  P91A84           Node_84          Node_18471848    0          0          0          0          0          0

  
  ERROR 209: undefined object Node_85 at line 378 of [CONDUIT] section:
  P91A85           Node_85          Node_18481849    0          0          0          0          0          0

  
  ERROR 209: undefined object Node_86 at line 379 of [CONDUIT] section:
  P91A86           Node_86          Node_18491850    0          0          0          0          0          0

  
  ERROR 209: undefined object Node_87 at line 380 of [CONDUIT] section:
  P91A87           Node_87          Node_18501851    0          0          0          0          0          0

  
  ERROR 209: undefined object Node_88 at line 381 of [CONDUIT] section:
  P91A88           Node_88          Node_18511852    0          0          0          0          0          0

  
  ERROR 209: undefined object Node_89 at line 382 of [CONDUIT] section:
  P91A89           Node_89          Node_18521853    0          0          0          0          0          0

  
  ERROR 209: undefined object Node_91 at line 383 of [CONDUIT] section:
  P91B10           Node_91          Node_18531862    0          0          0          0          0          0

  
  ERROR 209: undefined object Node_91 at line 384 of [CONDUIT] section:
  P91B11           Node_91          Node_18541855    0          0          0          0          0          0

  
  ERROR 209: undefined object Node_91 at line 385 of [CONDUIT] section:
  P91B12           Node_91          Node_18551858    0          0          0          0          0          0

  
  ERROR 209: undefined object Node_91 at line 386 of [CONDUIT] section:
  P91B13           Node_91          Node_18561857    0          0          0          0          0          0

  
  ERROR 209: undefined object Node_91 at line 387 of [CONDUIT] section:
  P91B14           Node_91          Node_18571858    0          0          0          0          0          0

  
  ERROR 209: undefined object Node_91 at line 388 of [CONDUIT] section:
  P91B15           Node_91          Node_18581859    0          0          0          0          0          0

  
  ERROR 209: undefined object Node_91 at line 389 of [CONDUIT] section:
  P91B16           Node_91          Node_18591860    0          0          0          0          0          0

  
  ERROR 209: undefined object Node_91 at line 390 of [CONDUIT] section:
  P91B17           Node_91          Node_18601861    0          0          0          0          0          0

  
  ERROR 209: undefined object Node_91 at line 391 of [CONDUIT] section:
  P91B18           Node_91          Node_18611862    0          0          0          0          0          0

  
  ERROR 209: undefined object Node_91 at line 392 of [CONDUIT] section:
  P91B19           Node_91          Node_18621868    0          0          0          0          0          0

  
  ERROR 209: undefined object Node_91 at line 393 of [CONDUIT] section:
  P91B20           Node_91          Node_18631864    0          0          0          0          0          0

  
  ERROR 209: undefined object Node_91 at line 394 of [CONDUIT] section:
  P91B21           Node_91          Node_18641865    0          0          0          0          0          0

  
  ERROR 209: undefined object Node_91 at line 395 of [CONDUIT] section:
  P91B22           Node_91          Node_18651866    0          0          0          0          0          0

  
  ERROR 209: undefined object Node_91 at line 396 of [CONDUIT] section:
  P91B23           Node_91          Node_18661867    0          0          0          0          0          0

  
  ERROR 209: undefined object Node_91 at line 397 of [CONDUIT] section:
  P91B24           Node_91          Node_18671868    0          0          0          0          0          0

  
  ERROR 209: undefined object Node_91 at line 398 of [CONDUIT] section:
  P91B25           Node_91          Node_18681869    0          0          0          0          0          0

  
  ERROR 209: undefined object Node_91 at line 399 of [CONDUIT] section:
  P91B26           Node_91          Node_18691878    0          0          0          0          0          0

  
  ERROR 209: undefined object Node_91 at line 400 of [CONDUIT] section:
  P91B30           Node_91          Node_18701871    0          0          0          0          0          0

  
  ERROR 209: undefined object Node_91 at line 401 of [CONDUIT] section:
  P91B31           Node_91          Node_18711875    0          0          0          0          0          0

  
  ERROR 209: undefined object Node_91 at line 402 of [CONDUIT] section:
  P91B32           Node_91          Node_18721873    0          0          0          0          0          0

  
  ERROR 209: undefined object Node_91 at line 403 of [CONDUIT] section:
  P91B33           Node_91          Node_18731874    0          0          0          0          0          0

  
  ERROR 209: undefined object Node_91 at line 404 of [CONDUIT] section:
  P91B34           Node_91          Node_18741875    0          0          0          0          0          0

  
  ERROR 209: undefined object Node_91 at line 405 of [CONDUIT] section:
  P91B35           Node_91          Node_18751877    0          0          0          0          0          0

  
  ERROR 209: undefined object Node_91 at line 406 of [CONDUIT] section:
  P91B36           Node_91          Node_18761877    0          0          0          0          0          0

  
  ERROR 209: undefined object Node_91 at line 407 of [CONDUIT] section:
  P91B37           Node_91          Node_18771878    0          0          0          0          0          0

  
  ERROR 209: undefined object Node_91 at line 408 of [CONDUIT] section:
  P91B40           Node_91          Node_18781879    0          0          0          0          0          0

  
  ERROR 209: undefined object Node_91 at line 409 of [CONDUIT] section:
  P91B41           Node_91          Node_18791880    0          0          0          0          0          0

  
  ERROR 209: undefined object Node_91 at line 410 of [CONDUIT] section:
  P91B42           Node_91          Node_18801881    0          0          0          0          0          0

  
  ERROR 209: undefined object Node_91 at line 411 of [CONDUIT] section:
  P91B43           Node_91          Node_18811887    0          0          0          0          0          0

  
  ERROR 209: undefined object Node_50 at line 412 of [CONDUIT] section:
  P91B50           Node_50          Node_18821883    0          0          0          0          0          0

  
  ERROR 209: undefined object Node_51 at line 413 of [CONDUIT] section:
  P91B51           Node_51          Node_18831884    0          0          0          0          0          0

  
  ERROR 209: undefined object Node_52 at line 414 of [CONDUIT] section:
  P91B52           Node_52          Node_18841885    0          0          0          0          0          0

  
  ERROR 209: undefined object Node_53 at line 415 of [CONDUIT] section:
  P91B53           Node_53          Node_18851886    0          0          0          0          0          0

  
  ERROR 209: undefined object Node_54 at line 416 of [CONDUIT] section:
  P91B54           Node_54          Node_18861887    0          0          0          0          0          0

  
  ERROR 209: undefined object Node_55 at line 417 of [CONDUIT] section:
  P91B55           Node_55          Node_18871888    0          0          0          0          0          0

  
  ERROR 209: undefined object Node_56 at line 418 of [CONDUIT] section:
  P91B56           Node_56          Node_18881901    0          0          0          0          0          0

  
  ERROR 209: undefined object Node_60 at line 419 of [CONDUIT] section:
  P91B60           Node_60          Node_18891892    0          0          0          0          0          0

  
  ERROR 209: undefined object Node_61 at line 420 of [CONDUIT] section:
  P91B61           Node_61          Node_18901891    0          0          0          0          0          0

  
  ERROR 209: undefined object Node_62 at line 421 of [CONDUIT] section:
  P91B62           Node_62          Node_18911892    0          0          0          0          0          0

  
  ERROR 209: undefined object Node_63 at line 422 of [CONDUIT] section:
  P91B63           Node_63          Node_18921895    0          0          0          0          0          0

  
  ERROR 209: undefined object Node_64 at line 423 of [CONDUIT] section:
  P91B64           Node_64          Node_18931894    0          0          0          0          0          0

  
  ERROR 209: undefined object Node_65 at line 424 of [CONDUIT] section:
  P91B65           Node_65          Node_18941895    0          0          0          0          0          0

  
  ERROR 209: undefined object Node_66 at line 425 of [CONDUIT] section:
  P91B66           Node_66          Node_18951898    0          0          0          0          0          0

  
  ERROR 209: undefined object Node_67 at line 426 of [CONDUIT] section:
  P91B67           Node_67          Node_18961897    0          0          0          0          0          0

  
  ERROR 209: undefined object Node_68 at line 427 of [CONDUIT] section:
  P91B68           Node_68          Node_18971898    0          0          0          0          0          0

  
  ERROR 209: undefined object Node_69 at line 428 of [CONDUIT] section:
  P91B69           Node_69          Node_18981899    0          0          0          0          0          0

  
  ERROR 209: undefined object Node_70 at line 429 of [CONDUIT] section:
  P91B70           Node_70          Node_18991900    0          0          0          0          0          0

  
  ERROR 209: undefined object Node_71 at line 430 of [CONDUIT] section:
  P91B71           Node_71          Node_19001901    0          0          0          0          0          0

  
  Maximum error count exceeded.

  Analysis begun on:  Sat Mar  7 21:51:22 2026
  Analysis ended on:  Sat Mar  7 21:51:22 2026
  Total elapsed time: < 1 sec