
  EPA STORM WATER MANAGEMENT MODEL - VERSION 5.2 (Build 5.2.4)
  ------------------------------------------------------------

  
  ERROR 209: undefined object ? at line 125 of [CONDUIT] section:
  bob1             ?                ?                33.00      0.0140     58.50      45.85      0          0

  
  ERROR 209: undefined object 14.00 at line 195 of [XSECT] section:
  8to7             IRREGULAR    14.00      0          0          0          1


  Analysis begun on:  Sat Mar  7 21:51:31 2026
  Analysis ended on:  Sat Mar  7 21:51:31 2026
  Total elapsed time: < 1 sec