
  EPA STORM WATER MANAGEMENT MODEL - VERSION 5.2 (Build 5.2.4)
  ------------------------------------------------------------

  
  ERROR 211: invalid number  at line 62 of [XSECT] section:
  1030             TRAPEZOIDAL  9.00       0          0          0          1

  
  ERROR 211: invalid number  at line 65 of [XSECT] section:
  1630             TRAPEZOIDAL  9.00       0          0          0          1


  Analysis begun on:  Sat Mar  7 21:51:33 2026
  Analysis ended on:  Sat Mar  7 21:51:33 2026
  Total elapsed time: < 1 sec