
  EPA STORM WATER MANAGEMENT MODEL - VERSION 5.2 (Build 5.2.4)
  ------------------------------------------------------------

  
  ERROR 209: undefined object ? at line 33 of [CONDUIT] section:
  203              ?                ?                100.00     0.0140     500.00     499.00     0          0

  
  ERROR 209: undefined object ? at line 34 of [CONDUIT] section:
  205              ?                ?                50.00      0.0140     450.00     449.90     0          0

  
  ERROR 209: undefined object ? at line 35 of [CONDUIT] section:
  207              ?                ?                100.00     0.0140     500.00     499.00     0          0


  Analysis begun on:  Sat Mar  7 21:51:24 2026
  Analysis ended on:  Sat Mar  7 21:51:24 2026
  Total elapsed time: < 1 sec