
  EPA STORM WATER MANAGEMENT MODEL - VERSION 5.2 (Build 5.2.4)
  ------------------------------------------------------------

  
  ERROR 209: undefined object USUI2 at line 654 of [PUMP] section:
  USUI1            USUI2            USUI3            PC_USUI1   ON       0          0         

  
  ERROR 209: undefined object OSUI2 at line 655 of [PUMP] section:
  OSUI1            OSUI2            OSUI3            PC_OSUI1   ON       6.65       6.40      


  Analysis begun on:  Sat Mar  7 21:51:27 2026
  Analysis ended on:  Sat Mar  7 21:51:27 2026
  Total elapsed time: < 1 sec