
  EPA STORM WATER MANAGEMENT MODEL - VERSION 5.2 (Build 5.2.4)
  ------------------------------------------------------------

  
  ERROR 207: duplicate ID name 0 at line 26 of [JUNC] section:
  0                1296.16    0          0          0          0

  
  ERROR 207: duplicate ID name 0 at line 27 of [JUNC] section:
  0                1308.55    0          0          0          0

  
  ERROR 207: duplicate ID name 0 at line 28 of [JUNC] section:
  0                1327.52    0          0          0          0

  
  ERROR 207: duplicate ID name 0 at line 29 of [JUNC] section:
  0                1324.95    0          0          0          0

  
  ERROR 207: duplicate ID name 0 at line 30 of [JUNC] section:
  0                1321.95    0          0          0          0

  
  ERROR 207: duplicate ID name 0 at line 31 of [JUNC] section:
  0                1321.86    0          0          0          0

  
  ERROR 207: duplicate ID name 0 at line 32 of [JUNC] section:
  0                1300.86    0          0          0          0

  
  ERROR 207: duplicate ID name 0 at line 33 of [JUNC] section:
  0                1305.16    0          0          0          0

  
  ERROR 207: duplicate ID name 0 at line 34 of [JUNC] section:
  0                1291.45    0          0          0          0

  
  ERROR 207: duplicate ID name 0 at line 35 of [JUNC] section:
  0                1306.61    0          0          0          0

  
  ERROR 207: duplicate ID name 0 at line 36 of [JUNC] section:
  0                1293.66    0          0          0          0

  
  ERROR 207: duplicate ID name 0 at line 37 of [JUNC] section:
  0                1287.70    0          0          0          0

  
  ERROR 207: duplicate ID name 0 at line 38 of [JUNC] section:
  0                1299.61    0          0          0          0

  
  ERROR 207: duplicate ID name 0 at line 39 of [JUNC] section:
  0                1305.15    0          0          0          0

  
  ERROR 207: duplicate ID name 0 at line 40 of [JUNC] section:
  0                1303.71    0          0          0          0

  
  ERROR 207: duplicate ID name 0 at line 41 of [JUNC] section:
  0                1295.00    0          0          0          0

  
  ERROR 207: duplicate ID name 0 at line 42 of [JUNC] section:
  0                1284.41    0          0          0          0

  
  ERROR 207: duplicate ID name 0 at line 43 of [JUNC] section:
  0                1285.20    0          0          0          0

  
  ERROR 207: duplicate ID name 0 at line 44 of [JUNC] section:
  0                1282.63    0          0          0          0

  
  ERROR 207: duplicate ID name 0 at line 45 of [JUNC] section:
  0                1285.79    0          0          0          0

  
  ERROR 207: duplicate ID name 0 at line 46 of [JUNC] section:
  0                1295.66    0          0          0          0

  
  ERROR 207: duplicate ID name 0 at line 47 of [JUNC] section:
  0                1279.25    0          0          0          0

  
  ERROR 207: duplicate ID name 0 at line 48 of [JUNC] section:
  0                1309.40    0          0          0          0

  
  ERROR 207: duplicate ID name 0 at line 49 of [JUNC] section:
  0                1301.39    0          0          0          0

  
  ERROR 207: duplicate ID name 0 at line 50 of [JUNC] section:
  0                1316.64    0          0          0          0

  
  ERROR 207: duplicate ID name 0 at line 51 of [JUNC] section:
  0                1320.10    0          0          0          0

  
  ERROR 207: duplicate ID name 0 at line 52 of [JUNC] section:
  0                1317.46    0          0          0          0

  
  ERROR 207: duplicate ID name 0 at line 53 of [JUNC] section:
  0                1297.23    0          0          0          0

  
  ERROR 207: duplicate ID name 0 at line 54 of [JUNC] section:
  0                1289.13    0          0          0          0

  
  ERROR 207: duplicate ID name 0 at line 55 of [JUNC] section:
  0                1291.32    0          0          0          0

  
  ERROR 207: duplicate ID name 0 at line 56 of [JUNC] section:
  0                1309.65    0          0          0          0

  
  ERROR 207: duplicate ID name 0 at line 57 of [JUNC] section:
  0                1337.34    0          0          0          0

  
  ERROR 207: duplicate ID name 0 at line 58 of [JUNC] section:
  0                1329.26    0          0          0          0

  
  ERROR 207: duplicate ID name 0 at line 59 of [JUNC] section:
  0                1329.52    0          0          0          0

  
  ERROR 207: duplicate ID name 0 at line 60 of [JUNC] section:
  0                1298.93    0          0          0          0

  
  ERROR 207: duplicate ID name 0 at line 61 of [JUNC] section:
  0                1292.37    0          0          0          0

  
  ERROR 207: duplicate ID name 0 at line 62 of [JUNC] section:
  0                1290.45    0          0          0          0

  
  ERROR 207: duplicate ID name 0 at line 63 of [JUNC] section:
  0                1296.77    0          0          0          0

  
  ERROR 207: duplicate ID name 0 at line 64 of [JUNC] section:
  0                1311.17    0          0          0          0

  
  ERROR 207: duplicate ID name 0 at line 65 of [JUNC] section:
  0                1294.99    0          0          0          0

  
  ERROR 207: duplicate ID name 0 at line 66 of [JUNC] section:
  0                1296.92    0          0          0          0

  
  ERROR 207: duplicate ID name 0 at line 67 of [JUNC] section:
  0                1284.15    0          0          0          0

  
  ERROR 207: duplicate ID name 0 at line 68 of [JUNC] section:
  0                1313.95    0          0          0          0

  
  ERROR 207: duplicate ID name 0 at line 69 of [JUNC] section:
  0                1306.81    0          0          0          0

  
  ERROR 207: duplicate ID name 0 at line 70 of [JUNC] section:
  0                1308.93    0          0          0          0

  
  ERROR 207: duplicate ID name 0 at line 71 of [JUNC] section:
  0                1302.62    0          0          0          0

  
  ERROR 207: duplicate ID name 0 at line 72 of [JUNC] section:
  0                1301.57    0          0          0          0

  
  ERROR 207: duplicate ID name 0 at line 73 of [JUNC] section:
  0                1314.26    0          0          0          0

  
  ERROR 207: duplicate ID name 0 at line 74 of [JUNC] section:
  0                1294.81    0          0          0          0

  
  ERROR 207: duplicate ID name 0 at line 79 of [STORAGE] section:
  0                1289.06    0          0          FUNCTIONAL 100.00 0          0

  
  ERROR 207: duplicate ID name 203 at line 87 of [CONDUIT] section:
  203              0                0                226.97     0          1300.55    1297.16    0          0

  
  ERROR 207: duplicate ID name 207 at line 92 of [CONDUIT] section:
  207              0                0                294.11     0          1313.86    1298.61    0          0

  
  ERROR 207: duplicate ID name 212 at line 103 of [CONDUIT] section:
  212              0                0                147.08     0          1298.61    1295.71    0          0

  
  ERROR 207: duplicate ID name 225 at line 111 of [CONDUIT] section:
  225              0                0                162.19     0          1301.40    1293.39    0          0

  
  ERROR 207: duplicate ID name 229 at line 115 of [CONDUIT] section:
  229              0                0                387.49     0          1309.46    1293.39    0          0

  
  ERROR 207: duplicate ID name 240 at line 121 of [CONDUIT] section:
  240              0                0                566.96     0          1288.77    1274.63    0          0

  
  ERROR 207: duplicate ID name 243 at line 130 of [CONDUIT] section:
  243              0                0                508.00     0          1288.92    1286.99    0          0

  
  ERROR 207: duplicate ID name 245 at line 132 of [CONDUIT] section:
  245              0                0                193.14     0          1305.95    1298.81    0          0

  
  ERROR 207: duplicate ID name 234 at line 133 of [CONDUIT] section:
  234              0                0                405.25     0          1329.34    1303.17    0          0

  
  ERROR 207: duplicate ID name 247 at line 135 of [CONDUIT] section:
  247              0                0                405.48     0          1300.93    1288.92    0          0

  
  ERROR 207: duplicate ID name 235 at line 136 of [CONDUIT] section:
  235              0                0                350.11     0          1321.26    1306.26    0          0

  
  ERROR 207: duplicate ID name 204 at line 140 of [CONDUIT] section:
  204              0                0                351.46     0          1319.52    1306.26    0          0

  
  ERROR 207: duplicate ID name 204 at line 141 of [CONDUIT] section:
  204              0                0                417.64     0          1319.52    1294.62    0          0


  Analysis begun on:  Sat Mar  7 21:51:28 2026
  Analysis ended on:  Sat Mar  7 21:51:28 2026
  Total elapsed time: < 1 sec