
  EPA STORM WATER MANAGEMENT MODEL - VERSION 5.2 (Build 5.2.4)
  ------------------------------------------------------------

  
  ERROR 209: undefined object 0 at line 55 of [XSECT] section:
  FC-C-1           IRREGULAR    0          0          0          0          1

  
  ERROR 211: invalid number  at line 57 of [XSECT] section:
  FC-W-N-1         RECT_OPEN    0          500.00     0          0          

  
  ERROR 211: invalid number  at line 58 of [XSECT] section:
  FC-W-S-1         RECT_OPEN    0          500.00     0          0          


  Analysis begun on:  Sat Mar  7 21:51:25 2026
  Analysis ended on:  Sat Mar  7 21:51:25 2026
  Total elapsed time: < 1 sec