
  EPA STORM WATER MANAGEMENT MODEL - VERSION 5.2 (Build 5.2.4)
  ------------------------------------------------------------

  
  ERROR 207: duplicate ID name 382.1 at line 572 of [CONDUIT] section:
  382.1            382.2            381              47.00      0.0240     0.95       0.22       0          0

  
  ERROR 207: duplicate ID name 482.1 at line 804 of [CONDUIT] section:
  482.1            279              STORAGE          40.00      0.0140     -3.02      -3.03      0          0

  
  ERROR 207: duplicate ID name 482.1 at line 805 of [CONDUIT] section:
  482.1            279              LEVEE            50.00      0.0140     -3.02      -3.03      0          0


  Analysis begun on:  Sat Mar  7 21:51:21 2026
  Analysis ended on:  Sat Mar  7 21:51:21 2026
  Total elapsed time: < 1 sec