
  EPA STORM WATER MANAGEMENT MODEL - VERSION 5.2 (Build 5.2.4)
  ------------------------------------------------------------

  
  ERROR 209: undefined object flow at line 104 of [ORIFICE] section:
  low flow         MH-95            MH-94            SIDE       798.37     0.650      NO       0

  
  ERROR 205: invalid keyword flow at line 143 of [XSECT] section:
  low flow         RECT_CLOSED  2.00       0          0          0          


  Analysis begun on:  Sat Mar  7 21:51:26 2026
  Analysis ended on:  Sat Mar  7 21:51:26 2026
  Total elapsed time: < 1 sec