
  EPA STORM WATER MANAGEMENT MODEL - VERSION 5.2 (Build 5.2.4)
  ------------------------------------------------------------

  
  ERROR 209: undefined object 0 at line 232 of [XSECT] section:
  b10002           IRREGULAR    0          0          0          0          1

  
  ERROR 209: undefined object 0 at line 233 of [XSECT] section:
  b10003           IRREGULAR    0          0          0          0          1

  
  ERROR 209: undefined object 0 at line 234 of [XSECT] section:
  b10004           IRREGULAR    0          0          0          0          1

  
  ERROR 209: undefined object 0 at line 235 of [XSECT] section:
  b10005           IRREGULAR    0          0          0          0          1

  
  ERROR 209: undefined object 0 at line 238 of [XSECT] section:
  b10008           IRREGULAR    0          0          0          0          1

  
  ERROR 211: invalid number  at line 241 of [XSECT] section:
  b10011           TRAPEZOIDAL  4.00       0          0          0          1

  
  ERROR 211: invalid number  at line 242 of [XSECT] section:
  b101c            TRAPEZOIDAL  4.00       0          0          0          1

  
  ERROR 211: invalid number  at line 243 of [XSECT] section:
  b102c            TRAPEZOIDAL  4.00       0          0          0          1

  
  ERROR 211: invalid number  at line 244 of [XSECT] section:
  b103c            TRAPEZOIDAL  4.00       0          0          0          1

  
  ERROR 211: invalid number  at line 245 of [XSECT] section:
  b104c            TRAPEZOIDAL  4.00       0          0          0          1

  
  ERROR 211: invalid number  at line 246 of [XSECT] section:
  b105c            TRAPEZOIDAL  4.00       0          0          0          1

  
  ERROR 211: invalid number  at line 247 of [XSECT] section:
  b106c            TRAPEZOIDAL  4.00       0          0          0          1

  
  ERROR 211: invalid number  at line 248 of [XSECT] section:
  b107c            TRAPEZOIDAL  4.00       0          0          0          1

  
  ERROR 211: invalid number  at line 249 of [XSECT] section:
  b108c            TRAPEZOIDAL  4.00       0          0          0          1

  
  ERROR 211: invalid number  at line 250 of [XSECT] section:
  b109c            TRAPEZOIDAL  4.00       0          0          0          1

  
  ERROR 211: invalid number  at line 251 of [XSECT] section:
  b110c            TRAPEZOIDAL  4.00       0          0          0          1

  
  ERROR 211: invalid number  at line 252 of [XSECT] section:
  b111c            TRAPEZOIDAL  4.00       0          0          0          1

  
  ERROR 211: invalid number  at line 253 of [XSECT] section:
  b112c            TRAPEZOIDAL  4.00       0          0          0          1

  
  ERROR 211: invalid number  at line 254 of [XSECT] section:
  b113c            TRAPEZOIDAL  4.00       0          0          0          1

  
  ERROR 209: undefined object 0 at line 255 of [XSECT] section:
  b20001           IRREGULAR    0          0          0          0          1

  
  ERROR 209: undefined object 0 at line 256 of [XSECT] section:
  b20002           IRREGULAR    0          0          0          0          1

  
  ERROR 209: undefined object 0 at line 257 of [XSECT] section:
  b20003           IRREGULAR    0          0          0          0          1

  
  ERROR 209: undefined object 0 at line 258 of [XSECT] section:
  b20004           IRREGULAR    0          0          0          0          1

  
  ERROR 209: undefined object 0 at line 259 of [XSECT] section:
  b20005           IRREGULAR    0          0          0          0          1

  
  ERROR 209: undefined object 0 at line 260 of [XSECT] section:
  b20006           IRREGULAR    0          0          0          0          1

  
  ERROR 209: undefined object 0 at line 261 of [XSECT] section:
  b20007           IRREGULAR    0          0          0          0          1

  
  ERROR 211: invalid number  at line 262 of [XSECT] section:
  b201c            TRAPEZOIDAL  4.00       0          0          0          1

  
  ERROR 211: invalid number  at line 263 of [XSECT] section:
  b202c            TRAPEZOIDAL  4.00       0          0          0          1

  
  ERROR 211: invalid number  at line 264 of [XSECT] section:
  b203c            TRAPEZOIDAL  4.00       0          0          0          1

  
  ERROR 211: invalid number  at line 265 of [XSECT] section:
  b204c            TRAPEZOIDAL  4.00       0          0          0          1

  
  ERROR 211: invalid number  at line 266 of [XSECT] section:
  b205c            TRAPEZOIDAL  4.00       0          0          0          1

  
  ERROR 211: invalid number  at line 267 of [XSECT] section:
  b206c            TRAPEZOIDAL  4.00       0          0          0          1

  
  ERROR 211: invalid number  at line 268 of [XSECT] section:
  b207c            TRAPEZOIDAL  4.00       0          0          0          1

  
  ERROR 211: invalid number  at line 269 of [XSECT] section:
  b208c            TRAPEZOIDAL  4.00       0          0          0          1

  
  ERROR 211: invalid number  at line 270 of [XSECT] section:
  b209c            TRAPEZOIDAL  4.00       0          0          0          1

  
  ERROR 211: invalid number  at line 271 of [XSECT] section:
  b210c            TRAPEZOIDAL  4.00       0          0          0          1

  
  ERROR 209: undefined object 0 at line 273 of [XSECT] section:
  b30002           IRREGULAR    0          0          0          0          1

  
  ERROR 209: undefined object 0 at line 274 of [XSECT] section:
  b30003           IRREGULAR    0          0          0          0          1

  
  ERROR 209: undefined object 0 at line 275 of [XSECT] section:
  b30004           IRREGULAR    0          0          0          0          1

  
  ERROR 209: undefined object 0 at line 276 of [XSECT] section:
  b30005           IRREGULAR    0          0          0          0          1

  
  ERROR 209: undefined object 0 at line 277 of [XSECT] section:
  b30006           IRREGULAR    0          0          0          0          1

  
  ERROR 209: undefined object 0 at line 278 of [XSECT] section:
  b30007           IRREGULAR    0          0          0          0          1

  
  ERROR 209: undefined object 0 at line 279 of [XSECT] section:
  b30008           IRREGULAR    0          0          0          0          1

  
  ERROR 211: invalid number  at line 282 of [XSECT] section:
  b301c            TRAPEZOIDAL  4.00       0          0          0          1

  
  ERROR 211: invalid number  at line 283 of [XSECT] section:
  b302c            TRAPEZOIDAL  4.00       0          0          0          1

  
  ERROR 211: invalid number  at line 284 of [XSECT] section:
  b303c            TRAPEZOIDAL  4.00       0          0          0          1

  
  ERROR 211: invalid number  at line 285 of [XSECT] section:
  b304c            TRAPEZOIDAL  4.00       0          0          0          1

  
  ERROR 211: invalid number  at line 286 of [XSECT] section:
  b305c            TRAPEZOIDAL  4.00       0          0          0          1

  
  ERROR 211: invalid number  at line 287 of [XSECT] section:
  b306c            TRAPEZOIDAL  4.00       0          0          0          1

  
  ERROR 211: invalid number  at line 288 of [XSECT] section:
  b307c            TRAPEZOIDAL  4.00       0          0          0          1

  
  ERROR 211: invalid number  at line 289 of [XSECT] section:
  b308c            TRAPEZOIDAL  4.00       0          0          0          1

  
  ERROR 211: invalid number  at line 290 of [XSECT] section:
  b309c            TRAPEZOIDAL  4.00       0          0          0          1

  
  ERROR 211: invalid number  at line 291 of [XSECT] section:
  b310c            TRAPEZOIDAL  4.00       0          0          0          1

  
  ERROR 209: undefined object 0 at line 292 of [XSECT] section:
  b40001           IRREGULAR    0          0          0          0          1

  
  ERROR 209: undefined object 0 at line 293 of [XSECT] section:
  b40002           IRREGULAR    0          0          0          0          1

  
  ERROR 209: undefined object 0 at line 296 of [XSECT] section:
  b40005           IRREGULAR    0          0          0          0          1

  
  ERROR 209: undefined object 0 at line 297 of [XSECT] section:
  b40006           IRREGULAR    0          0          0          0          1

  
  ERROR 209: undefined object 0 at line 298 of [XSECT] section:
  b40007           IRREGULAR    0          0          0          0          1

  
  ERROR 209: undefined object 0 at line 299 of [XSECT] section:
  b40008           IRREGULAR    0          0          0          0          1

  
  ERROR 209: undefined object 0 at line 300 of [XSECT] section:
  b40009           IRREGULAR    0          0          0          0          1

  
  ERROR 209: undefined object 0 at line 307 of [XSECT] section:
  b40016           IRREGULAR    0          0          0          0          1

  
  ERROR 211: invalid number  at line 309 of [XSECT] section:
  b401c            TRAPEZOIDAL  4.00       0          0          0          1

  
  ERROR 211: invalid number  at line 310 of [XSECT] section:
  b402c            TRAPEZOIDAL  4.00       0          0          0          1

  
  ERROR 211: invalid number  at line 311 of [XSECT] section:
  b403c            TRAPEZOIDAL  4.00       0          0          0          1

  
  ERROR 211: invalid number  at line 312 of [XSECT] section:
  b404c            TRAPEZOIDAL  4.00       0          0          0          1

  
  ERROR 211: invalid number  at line 313 of [XSECT] section:
  b405c            TRAPEZOIDAL  4.00       0          0          0          1

  
  ERROR 211: invalid number  at line 314 of [XSECT] section:
  b406c            TRAPEZOIDAL  4.00       0          0          0          1

  
  ERROR 211: invalid number  at line 315 of [XSECT] section:
  b407c            TRAPEZOIDAL  4.00       0          0          0          1

  
  ERROR 211: invalid number  at line 316 of [XSECT] section:
  b408c            TRAPEZOIDAL  4.00       0          0          0          1

  
  ERROR 211: invalid number  at line 317 of [XSECT] section:
  b409c            TRAPEZOIDAL  4.00       0          0          0          1

  
  ERROR 211: invalid number  at line 318 of [XSECT] section:
  b410c            TRAPEZOIDAL  4.00       0          0          0          1

  
  ERROR 211: invalid number  at line 319 of [XSECT] section:
  b411c            TRAPEZOIDAL  4.00       0          0          0          1

  
  ERROR 211: invalid number  at line 320 of [XSECT] section:
  b412c            TRAPEZOIDAL  4.00       0          0          0          1

  
  ERROR 211: invalid number  at line 321 of [XSECT] section:
  b413c            TRAPEZOIDAL  4.00       0          0          0          1

  
  ERROR 211: invalid number  at line 322 of [XSECT] section:
  b414c            TRAPEZOIDAL  4.00       0          0          0          1

  
  ERROR 211: invalid number  at line 323 of [XSECT] section:
  b415c            TRAPEZOIDAL  4.00       0          0          0          1

  
  ERROR 211: invalid number  at line 324 of [XSECT] section:
  b416c            TRAPEZOIDAL  4.00       0          0          0          1

  
  ERROR 211: invalid number  at line 325 of [XSECT] section:
  b417c            TRAPEZOIDAL  4.00       0          0          0          1

  
  ERROR 211: invalid number  at line 326 of [XSECT] section:
  b418c            TRAPEZOIDAL  4.00       0          0          0          1


  Analysis begun on:  Sat Mar  7 21:51:24 2026
  Analysis ended on:  Sat Mar  7 21:51:24 2026
  Total elapsed time: < 1 sec