
  EPA STORM WATER MANAGEMENT MODEL - VERSION 5.2 (Build 5.2.4)
  ------------------------------------------------------------

  
  ERROR 209: undefined object Stage2 at line 53 of [WEIR] section:
  Stage1           Stage2           Stage3           TRANSVERSE 608.00     1.840      NO       0        0          YES

  
  ERROR 211: invalid number  at line 64 of [XSECT] section:
  Stage1           RECT_OPEN    0          14.00      0          0          


  Analysis begun on:  Sat Mar  7 21:51:22 2026
  Analysis ended on:  Sat Mar  7 21:51:22 2026
  Total elapsed time: < 1 sec