
  EPA STORM WATER MANAGEMENT MODEL - VERSION 5.2 (Build 5.2.4)
  ------------------------------------------------------------

  
  ERROR 211: invalid number  at line 1538 of [XSECT] section:
  997              CIRCULAR     0          0          0          0          1

  
  ERROR 211: invalid number  at line 1539 of [XSECT] section:
  998              CIRCULAR     0          0          0          0          1

  
  ERROR 211: invalid number  at line 1540 of [XSECT] section:
  999              CIRCULAR     0          0          0          0          1

  
  ERROR 211: invalid number  at line 1541 of [XSECT] section:
  1000             CIRCULAR     0          0          0          0          1

  
  ERROR 211: invalid number  at line 1542 of [XSECT] section:
  1001             CIRCULAR     0          0          0          0          1

  
  ERROR 211: invalid number  at line 1543 of [XSECT] section:
  1002             CIRCULAR     0          0          0          0          1

  
  ERROR 211: invalid number  at line 1544 of [XSECT] section:
  1003             CIRCULAR     0          0          0          0          1

  
  ERROR 211: invalid number  at line 1545 of [XSECT] section:
  1004             CIRCULAR     0          0          0          0          1

  
  ERROR 211: invalid number  at line 1546 of [XSECT] section:
  1005             CIRCULAR     0          0          0          0          1

  
  ERROR 211: invalid number  at line 1547 of [XSECT] section:
  1006             CIRCULAR     0          0          0          0          1

  
  ERROR 211: invalid number  at line 1548 of [XSECT] section:
  1007             CIRCULAR     0          0          0          0          1

  
  ERROR 211: invalid number  at line 1549 of [XSECT] section:
  1008             CIRCULAR     0          0          0          0          1

  
  ERROR 211: invalid number  at line 1550 of [XSECT] section:
  1009             CIRCULAR     0          0          0          0          1

  
  ERROR 211: invalid number  at line 1551 of [XSECT] section:
  1010             CIRCULAR     0          0          0          0          1

  
  ERROR 211: invalid number  at line 1552 of [XSECT] section:
  1011             CIRCULAR     0          0          0          0          1

  
  ERROR 211: invalid number  at line 1553 of [XSECT] section:
  1012             CIRCULAR     0          0          0          0          1

  
  ERROR 211: invalid number  at line 1554 of [XSECT] section:
  1013             CIRCULAR     0          0          0          0          1

  
  ERROR 211: invalid number  at line 1555 of [XSECT] section:
  1014             CIRCULAR     0          0          0          0          1

  
  ERROR 211: invalid number  at line 1556 of [XSECT] section:
  1015             CIRCULAR     0          0          0          0          1


  Analysis begun on:  Sat Mar  7 21:51:24 2026
  Analysis ended on:  Sat Mar  7 21:51:24 2026
  Total elapsed time: < 1 sec