
  EPA STORM WATER MANAGEMENT MODEL - VERSION 5.2 (Build 5.2.4)
  ------------------------------------------------------------

  
  ERROR 209: undefined object Node_11325 at line 1250 of [CONDUIT] section:
  11325            Node_11325       Node_10111017    1150.00    0.0140     579.54     567.80     0          0

  
  ERROR 209: undefined object Node_11326 at line 1251 of [CONDUIT] section:
  11326            Node_11326       Node_10131019    1150.00    0.0140     578.97     567.70     0          0

  
  ERROR 209: undefined object Node_11506 at line 1253 of [CONDUIT] section:
  11506            Node_11506       Node_10231024    350.00     0.0140     571.24     571.10     0          0

  
  ERROR 209: undefined object Node_11507 at line 1254 of [CONDUIT] section:
  11507            Node_11507       Node_10241026    325.00     0.0140     571.10     570.53     0          0

  
  ERROR 209: undefined object Node_11508 at line 1255 of [CONDUIT] section:
  11508            Node_11508       Node_10281026    350.00     0.0140     572.02     570.53     0          0

  
  ERROR 209: undefined object Node_11510 at line 1256 of [CONDUIT] section:
  11510            Node_11510       Node_10301028    350.00     0.0140     572.90     572.02     0          0

  
  ERROR 209: undefined object Node_11512 at line 1257 of [CONDUIT] section:
  11512            Node_11512       Node_10321033    575.00     0.0140     569.25     568.66     0          0

  
  ERROR 209: undefined object Node_11514 at line 1258 of [CONDUIT] section:
  11514            Node_11514       Node_10351036    325.00     0.0140     573.86     573.43     0          0

  
  ERROR 209: undefined object Node_11517 at line 1259 of [CONDUIT] section:
  11517            Node_11517       Node_10381039    775.00     0.0140     570.00     567.65     0          0

  
  ERROR 209: undefined object Node_11519 at line 1260 of [CONDUIT] section:
  11519            Node_11519       Node_10331039    900.00     0.0140     568.66     567.65     0          0

  
  ERROR 209: undefined object Node_11520 at line 1261 of [CONDUIT] section:
  11520            Node_11520       Node_10421039    250.00     0.0140     572.48     567.65     0          0

  
  ERROR 209: undefined object Node_11521 at line 1262 of [CONDUIT] section:
  11521            Node_11521       Node_10361042    325.00     0.0140     573.43     572.48     0          0

  
  ERROR 209: undefined object Node_11522 at line 1263 of [CONDUIT] section:
  11522            Node_11522       Node_10451046    350.00     0.0140     579.15     578.76     0          0

  
  ERROR 209: undefined object Node_11523 at line 1264 of [CONDUIT] section:
  11523            Node_11523       Node_10461048    400.00     0.0140     575.76     566.19     0          0

  
  ERROR 209: undefined object Node_11526 at line 1265 of [CONDUIT] section:
  11526            Node_11526       Node_10501051    350.00     0.0140     571.97     571.64     0          0

  
  ERROR 209: undefined object Node_11530 at line 1266 of [CONDUIT] section:
  11530            Node_11530       Node_10531035    175.00     0.0140     574.54     573.86     0          0

  
  ERROR 209: undefined object Node_11531 at line 1267 of [CONDUIT] section:
  11531            Node_11531       Node_10551050    675.00     0.0140     573.00     571.97     0          0

  
  ERROR 209: undefined object Node_11594 at line 1272 of [CONDUIT] section:
  11594            Node_11594       Node_10481061    1125.00    0.0140     566.19     562.00     0          0

  
  ERROR 209: undefined object Node_11595 at line 1273 of [CONDUIT] section:
  11595            Node_11595       Node_10391063    1325.00    0.0140     567.65     567.00     0          0

  
  ERROR 209: undefined object Node_11536 at line 1274 of [CONDUIT] section:
  11536            Node_11536       Node_10631048    825.00     0.0140     567.00     566.19     0          0

  
  ERROR 209: undefined object Node_11596 at line 1275 of [CONDUIT] section:
  11596            Node_11596       Node_10261032    1000.00    0.0140     570.53     569.25     0          0

  
  ERROR 209: undefined object Node_11598 at line 1276 of [CONDUIT] section:
  11598            Node_11598       Node_10671038    375.00     0.0140     570.41     570.00     0          0

  
  ERROR 209: undefined object Node_11599 at line 1277 of [CONDUIT] section:
  11599            Node_11599       Node_10691023    350.00     0.0140     571.39     571.24     0          0

  
  ERROR 209: undefined object Node_11597 at line 1278 of [CONDUIT] section:
  11597            Node_11597       Node_10611071    625.00     0.0140     562.00     561.68     0          0

  
  ERROR 209: undefined object Node_11500 at line 1279 of [CONDUIT] section:
  11500            Node_11500       Node_10711073    100.00     0.0140     552.16     552.01     0          0

  
  ERROR 209: undefined object Node_11901 at line 1280 of [CONDUIT] section:
  11901            Node_11901       Node_10751076    1000.00    0.0140     578.51     576.34     0          0

  
  ERROR 209: undefined object Node_11910 at line 1281 of [CONDUIT] section:
  11910            Node_11910       Node_10781015    100.00     0.0140     572.60     571.95     0          0

  
  ERROR 209: undefined object Node_12301 at line 1282 of [CONDUIT] section:
  12301            Node_12301       Node_10801081    100.00     0.0140     592.83     589.95     0          0

  
  ERROR 209: undefined object Node_12302 at line 1283 of [CONDUIT] section:
  12302            Node_12302       Node_10831084    100.00     0.0140     589.56     586.43     0          0

  
  ERROR 209: undefined object Node_12303 at line 1284 of [CONDUIT] section:
  12303            Node_12303       Node_10861087    100.00     0.0140     588.12     585.92     0          0

  
  ERROR 209: undefined object Node_12304 at line 1285 of [CONDUIT] section:
  12304            Node_12304       Node_10891090    100.00     0.0140     584.59     584.50     0          0

  
  ERROR 209: undefined object Node_12305 at line 1286 of [CONDUIT] section:
  12305            Node_12305       Node_10921093    100.00     0.0140     584.58     583.96     0          0

  
  ERROR 209: undefined object Node_12306 at line 1287 of [CONDUIT] section:
  12306            Node_12306       Node_1095243     100.00     0.0140     583.78     583.70     0          0

  
  ERROR 209: undefined object Node_12308 at line 1289 of [CONDUIT] section:
  12308            Node_12308       Node_10971099    1625.00    0.0140     581.28     578.00     0          0

  
  ERROR 209: undefined object Node_12311 at line 1290 of [CONDUIT] section:
  12311            Node_12311       Node_1101246     100.00     0.0140     582.56     582.37     0          0

  
  ERROR 209: undefined object Node_12315 at line 1293 of [CONDUIT] section:
  12315            Node_12315       Node_1106245     825.00     0.0140     577.00     576.00     0          0

  
  ERROR 209: undefined object Node_12320 at line 1296 of [CONDUIT] section:
  12320            Node_12320       Node_1104251     675.00     0.0140     575.00     574.72     0          0

  
  ERROR 209: undefined object Node_12325 at line 1297 of [CONDUIT] section:
  12325            Node_12325       Node_11121113    900.00     0.0140     583.81     582.52     0          0

  
  ERROR 209: undefined object Node_12326 at line 1298 of [CONDUIT] section:
  12326            Node_12326       Node_11131115    750.00     0.0140     582.52     581.28     0          0

  
  ERROR 209: undefined object Node_12327 at line 1299 of [CONDUIT] section:
  12327            Node_12327       Node_11151117    250.00     0.0140     581.28     581.00     0          0

  
  ERROR 209: undefined object Node_12381 at line 1300 of [CONDUIT] section:
  12381            Node_12381       Node_10811084    150.00     0.0140     586.45     586.43     0          0

  
  ERROR 209: undefined object Node_12382 at line 1301 of [CONDUIT] section:
  12382            Node_12382       Node_10841087    200.00     0.0140     586.43     585.92     0          0

  
  ERROR 209: undefined object Node_12383 at line 1302 of [CONDUIT] section:
  12383            Node_12383       Node_10871090    350.00     0.0140     585.92     584.50     0          0

  
  ERROR 209: undefined object Node_12384 at line 1303 of [CONDUIT] section:
  12384            Node_12384       Node_10901093    300.00     0.0140     584.50     583.96     0          0

  
  ERROR 209: undefined object Node_12385 at line 1304 of [CONDUIT] section:
  12385            Node_12385       Node_1093243     325.00     0.0140     583.96     583.70     0          0

  
  ERROR 209: undefined object Node_12399 at line 1306 of [CONDUIT] section:
  12399            Node_12399       Node_1125248     650.00     0.0140     580.26     578.62     0          0

  
  ERROR 209: undefined object Node_12309 at line 1307 of [CONDUIT] section:
  12309            Node_12309       Node_10991127    200.00     0.0140     578.00     577.80     0          0

  
  ERROR 209: undefined object Node_12319 at line 1309 of [CONDUIT] section:
  12319            Node_12319       Node_11091131    700.00     0.0140     582.50     581.82     0          0

  
  ERROR 209: undefined object Node_12324 at line 1310 of [CONDUIT] section:
  12324            Node_12324       Node_11171133    200.00     0.0140     581.00     580.00     0          0

  
  ERROR 209: undefined object Node_12395 at line 1311 of [CONDUIT] section:
  12395            Node_12395       Node_11351136    850.00     0.0140     600.75     597.22     0          0

  
  ERROR 209: undefined object Node_12396 at line 1312 of [CONDUIT] section:
  12396            Node_12396       Node_11361138    200.00     0.0140     590.05     589.92     0          0

  
  ERROR 209: undefined object Node_12500 at line 1313 of [CONDUIT] section:
  12500            Node_12500       Node_11401141    100.00     0.0140     555.58     555.43     0          0

  
  ERROR 209: undefined object Node_12901 at line 1314 of [CONDUIT] section:
  12901            Node_12901       Node_11431144    2100.00    0.0140     579.68     576.00     0          0

  
  ERROR 209: undefined object Node_12501 at line 1315 of [CONDUIT] section:
  12501            Node_12501       Node_11461147    150.00     0.0140     592.88     585.71     0          0

  
  ERROR 209: undefined object Node_12502 at line 1316 of [CONDUIT] section:
  12502            Node_12502       Node_11471149    200.00     0.0140     585.71     584.38     0          0

  
  ERROR 209: undefined object Node_12503 at line 1317 of [CONDUIT] section:
  12503            Node_12503       Node_11491151    350.00     0.0140     584.38     581.71     0          0

  
  ERROR 209: undefined object Node_12504 at line 1318 of [CONDUIT] section:
  12504            Node_12504       Node_11511153    300.00     0.0140     581.71     581.50     0          0

  
  ERROR 209: undefined object Node_12505 at line 1319 of [CONDUIT] section:
  12505            Node_12505       Node_11531155    325.00     0.0140     581.50     581.36     0          0

  
  ERROR 209: undefined object Node_12506 at line 1320 of [CONDUIT] section:
  12506            Node_12506       Node_11551157    250.00     0.0140     581.36     581.00     0          0

  
  ERROR 209: undefined object Node_12508 at line 1321 of [CONDUIT] section:
  12508            Node_12508       Node_11591160    800.00     0.0140     579.06     578.14     0          0

  
  ERROR 209: undefined object Node_12509 at line 1322 of [CONDUIT] section:
  12509            Node_12509       Node_11621163    750.00     0.0140     574.70     573.59     0          0

  
  ERROR 209: undefined object Node_12511 at line 1323 of [CONDUIT] section:
  12511            Node_12511       Node_1157252     125.00     0.0140     581.00     579.81     0          0

  
  ERROR 209: undefined object Node_12516 at line 1324 of [CONDUIT] section:
  12516            Node_12516       Node_11661167    1350.00    0.0140     574.30     572.83     0          0

  
  ERROR 209: undefined object Node_12524 at line 1325 of [CONDUIT] section:
  12524            Node_12524       Node_11691140    150.00     0.0140     565.50     565.18     0          0

  
  ERROR 209: undefined object Node_12525 at line 1326 of [CONDUIT] section:
  12525            Node_12525       Node_1171253     200.00     0.0140     570.72     570.00     0          0

  
  ERROR 209: undefined object Node_12526 at line 1327 of [CONDUIT] section:
  12526            Node_12526       Node_11731174    750.00     0.0140     568.00     567.16     0          0

  
  ERROR 209: undefined object Node_12527 at line 1328 of [CONDUIT] section:
  12527            Node_12527       Node_11741169    275.00     0.0140     567.16     565.50     0          0

  
  ERROR 209: undefined object Node_16620 at line 1329 of [CONDUIT] section:
  16620            Node_16620       Node_11771167    900.00     0.0140     577.24     572.83     0          0

  
  ERROR 209: undefined object Node_12622 at line 1330 of [CONDUIT] section:
  12622            Node_12622       Node_11671171    1400.00    0.0140     572.83     570.72     0          0

  
  ERROR 209: undefined object Node_12634 at line 1332 of [CONDUIT] section:
  12634            Node_12634       Node_11601163    1625.00    0.0140     578.14     573.59     0          0

  
  ERROR 209: undefined object Node_12635 at line 1333 of [CONDUIT] section:
  12635            Node_12635       Node_1163254     800.00     0.0140     573.59     573.00     0          0

  
  ERROR 209: undefined object Node_12334 at line 1336 of [CONDUIT] section:
  12334            Node_12334       Node_11171169    100.00     0.0140     582.33     565.50     0          0

  
  ERROR 209: undefined object Node_12335 at line 1337 of [CONDUIT] section:
  12335            Node_12335       Node_11121171    100.00     0.0140     585.33     570.72     0          0

  
  ERROR 209: undefined object Node_12336 at line 1338 of [CONDUIT] section:
  12336            Node_12336       Node_11131173    100.00     0.0140     584.06     568.00     0          0

  
  ERROR 209: undefined object Node_12337 at line 1339 of [CONDUIT] section:
  12337            Node_12337       Node_11151174    100.00     0.0140     583.06     567.16     0          0

  
  ERROR 209: undefined object Node_13388 at line 1364 of [CONDUIT] section:
  13388            Node_13388       Node_1214266     500.00     0.0140     579.60     578.68     0          0

  
  ERROR 209: undefined object Node_13308 at line 1365 of [CONDUIT] section:
  13308            Node_13308       Node_1217265     200.00     0.0140     581.00     580.35     0          0

  
  ERROR 209: undefined object Node_13381 at line 1372 of [CONDUIT] section:
  13381            Node_13381       Node_1131265     700.00     0.0140     581.82     580.35     0          0

  
  ERROR 209: undefined object Node_12398 at line 1373 of [CONDUIT] section:
  12398            Node_12398       Node_11381228    1300.00    0.0140     589.92     589.40     0          0

  
  ERROR 209: undefined object Node_13382 at line 1374 of [CONDUIT] section:
  13382            Node_13382       Node_11291230    250.00     0.0140     574.60     574.30     0          0

  
  ERROR 209: undefined object Node_13383 at line 1375 of [CONDUIT] section:
  13383            Node_13383       Node_1133271     200.00     0.0140     580.00     572.23     0          0

  
  ERROR 209: undefined object Node_13384 at line 1376 of [CONDUIT] section:
  13384            Node_13384       Node_1127259     1050.00    0.0140     577.80     576.29     0          0

  
  ERROR 209: undefined object Node_13385 at line 1377 of [CONDUIT] section:
  13385            Node_13385       Node_12281234    5200.00    0.0140     589.40     574.52     0          0

  
  ERROR 209: undefined object Node_13386 at line 1378 of [CONDUIT] section:
  13386            Node_13386       Node_1234267     775.00     0.0140     574.52     572.41     0          0

  
  ERROR 209: undefined object Node_13391 at line 1379 of [CONDUIT] section:
  13391            Node_13391       Node_1230264     1330.00    0.0140     574.30     573.51     0          0

  
  ERROR 209: undefined object Node_13392 at line 1380 of [CONDUIT] section:
  13392            Node_13392       Node_1238267     950.00     0.0140     570.91     570.41     0          0

  
  ERROR 209: undefined object Node_13393 at line 1381 of [CONDUIT] section:
  13393            Node_13393       Node_1205261     1625.00    0.0140     573.64     572.57     0          0

  
  ERROR 209: undefined object Node_13395 at line 1383 of [CONDUIT] section:
  13395            Node_13395       Node_12091238    1950.00    0.0140     571.86     570.91     0          0

  
  ERROR 209: undefined object Node_13397 at line 1384 of [CONDUIT] section:
  13397            Node_13397       Node_12431244    500.00     0.0140     569.63     564.96     0          0

  
  ERROR 209: undefined object Node_13398 at line 1385 of [CONDUIT] section:
  13398            Node_13398       Node_12231243    250.00     0.0140     569.80     569.63     0          0

  
  ERROR 209: undefined object Node_13399 at line 1386 of [CONDUIT] section:
  13399            Node_13399       Node_12201223    250.00     0.0140     569.81     569.80     0          0

  
  ERROR 209: undefined object Node_13375 at line 1387 of [CONDUIT] section:
  13375            Node_13375       Node_12481249    1750.00    0.0140     598.50     586.04     0          0

  
  ERROR 209: undefined object Node_13374 at line 1388 of [CONDUIT] section:
  13374            Node_13374       Node_12491251    5950.00    0.0140     586.04     573.67     0          0

  
  ERROR 209: undefined object Node_13373 at line 1389 of [CONDUIT] section:
  13373            Node_13373       Node_12511238    700.00     0.0140     573.67     570.91     0          0

  
  ERROR 209: undefined object Node_14380 at line 1393 of [CONDUIT] section:
  14380            Node_14380       Node_10151017    191.00     0.0140     567.95     567.80     0          0

  
  ERROR 209: undefined object Node_14381 at line 1394 of [CONDUIT] section:
  14381            Node_14381       Node_10171019    350.00     0.0140     567.80     567.70     0          0

  
  ERROR 209: undefined object Node_14382 at line 1395 of [CONDUIT] section:
  14382            Node_14382       Node_1019276     600.00     0.0140     567.70     567.56     0          0

  
  ERROR 209: undefined object Node_14383 at line 1396 of [CONDUIT] section:
  14383            Node_14383       Node_1021276     100.00     0.0140     568.00     567.56     0          0

  
  ERROR 209: undefined object Node_14393 at line 1406 of [CONDUIT] section:
  14393            Node_14393       Node_1272281     525.00     0.0140     565.88     565.62     0          0

  
  ERROR 209: undefined object Node_14394 at line 1407 of [CONDUIT] section:
  14394            Node_14394       Node_12741272    1925.00    0.0140     568.19     567.13     0          0

  
  Maximum error count exceeded.

  Analysis begun on:  Sat Mar  7 21:51:26 2026
  Analysis ended on:  Sat Mar  7 21:51:26 2026
  Total elapsed time: < 1 sec