
  EPA STORM WATER MANAGEMENT MODEL - VERSION 5.2 (Build 5.2.4)
  ------------------------------------------------------------

  
  ERROR 211: invalid number  at line 45 of [XSECT] section:
  315              CIRCULAR     0          0          0          0          1

  
  ERROR 211: invalid number  at line 46 of [XSECT] section:
  318              CIRCULAR     0          0          0          0          1

  
  ERROR 211: invalid number  at line 47 of [XSECT] section:
  319              CIRCULAR     0          0          0          0          1

  
  ERROR 211: invalid number  at line 48 of [XSECT] section:
  322              CIRCULAR     0          0          0          0          1

  
  ERROR 211: invalid number  at line 49 of [XSECT] section:
  323              CIRCULAR     0          0          0          0          1


  Analysis begun on:  Sat Mar  7 21:51:30 2026
  Analysis ended on:  Sat Mar  7 21:51:30 2026
  Total elapsed time: < 1 sec