
  EPA STORM WATER MANAGEMENT MODEL - VERSION 5.2 (Build 5.2.4)
  ------------------------------------------------------------

  
  ERROR 209: undefined object Node_8991 at line 974 of [CONDUIT] section:
  C8991            Node_8991        Node_12821278    125.00     0.0140     412.39     412.26     0          0

  
  ERROR 209: undefined object Node_53044 at line 975 of [CONDUIT] section:
  C53044           Node_53044       Node_12781281    125.00     0.0140     412.26     412.12     0          0

  
  ERROR 209: undefined object Node_73259 at line 976 of [CONDUIT] section:
  C73259-DO        Node_73259       Node_12801279    1760.00    0.0140     411.82     404.69     0          0

  
  ERROR 209: undefined object Node_73270 at line 977 of [CONDUIT] section:
  C73270a          Node_73270       Node_12811280    200.00     0.0083     412.12     411.82     0          0

  
  ERROR 209: undefined object Node_53043 at line 978 of [CONDUIT] section:
  C53043           Node_53043       Node_12831260    190.00     0.0043     412.40     405.84     0          0

  
  ERROR 209: undefined object Node_23074 at line 979 of [CONDUIT] section:
  C23074           Node_23074       Node_12851284    2958.00    0.0140     413.89     412.40     0          0

  
  ERROR 209: undefined object Node_73303 at line 980 of [CONDUIT] section:
  C73303-X         Node_73303       Node_12861285    1954.00    0.0140     415.62     414.64     0          0

  
  ERROR 209: undefined object Node_76198 at line 981 of [CONDUIT] section:
  C76198B-T        Node_76198       Node_12871286    960.00     0.0140     416.60     416.12     0          0

  
  ERROR 209: undefined object Node_76222 at line 982 of [CONDUIT] section:
  C76222           Node_76222       Node_12881287    1487.00    0.0140     417.59     416.85     0          0

  
  ERROR 209: undefined object Node_53098 at line 983 of [CONDUIT] section:
  C53098           Node_53098       Node_12891288    932.00     0.0140     418.05     417.59     0          0

  
  ERROR 209: undefined object Node_53097 at line 984 of [CONDUIT] section:
  C53097           Node_53097       Node_12901289    374.00     0.0140     418.24     418.05     0          0

  
  ERROR 209: undefined object Node_8687 at line 985 of [CONDUIT] section:
  C08687           Node_8687        Node_12911290    1495.00    0.0140     418.99     418.24     0          0

  
  ERROR 209: undefined object Node_70104 at line 986 of [CONDUIT] section:
  C70104           Node_70104       Node_12921291    711.00     0.0140     419.51     419.15     0          0

  
  ERROR 209: undefined object Node_8699 at line 987 of [CONDUIT] section:
  C08699           Node_8699        Node_12931292    717.00     0.0140     420.05     419.51     0          0

  
  ERROR 209: undefined object Node_8004 at line 988 of [CONDUIT] section:
  C08004-T         Node_8004        Node_12941293    1977.00    0.0140     421.10     420.05     0          0

  
  ERROR 209: undefined object Node_7136 at line 989 of [CONDUIT] section:
  C07136-T         Node_7136        Node_12951294    1016.00    0.0140     421.61     421.10     0          0

  
  ERROR 209: undefined object Node_67892 at line 990 of [CONDUIT] section:
  C67892           Node_67892       Node_12961295    1367.00    0.0140     422.78     422.16     0          0

  
  ERROR 209: undefined object Node_67892 at line 991 of [CONDUIT] section:
  C67892-T         Node_67892       Node_12971296    435.00     0.0140     423.50     423.28     0          0

  
  ERROR 209: undefined object Node_80040 at line 992 of [CONDUIT] section:
  C80040B          Node_80040       Node_12981297    993.00     0.0140     424.00     423.50     0          0

  
  ERROR 209: undefined object Node_23038 at line 993 of [CONDUIT] section:
  C23038-T         Node_23038       Node_12991298    522.00     0.0140     424.26     424.00     0          0

  
  ERROR 209: undefined object Node_52809 at line 994 of [CONDUIT] section:
  C52809-T         Node_52809       Node_13001299    986.00     0.0140     425.01     424.52     0          0

  
  ERROR 209: undefined object Node_52813 at line 995 of [CONDUIT] section:
  C52813           Node_52813       Node_13011300    464.00     0.0140     425.24     425.01     0          0

  
  ERROR 209: undefined object Node_8293 at line 996 of [CONDUIT] section:
  C08293           Node_8293        Node_13021301    175.00     0.0140     425.35     425.24     0          0

  
  ERROR 209: undefined object Node_8294 at line 997 of [CONDUIT] section:
  C08294           Node_8294        Node_13031302    593.00     0.0140     425.63     425.35     0          0

  
  ERROR 209: undefined object Node_66466 at line 998 of [CONDUIT] section:
  C66466A-T        Node_66466       Node_13041303    234.00     0.0140     425.74     425.63     0          0

  
  ERROR 209: undefined object Node_12618 at line 999 of [CONDUIT] section:
  C12618           Node_12618       Node_13051304    825.00     0.0140     426.11     425.74     0          0

  
  ERROR 209: undefined object Node_12618 at line 1000 of [CONDUIT] section:
  C12618-T         Node_12618       Node_13061305    149.00     0.0140     426.16     426.11     0          0

  
  ERROR 209: undefined object Node_52863 at line 1001 of [CONDUIT] section:
  C52863           Node_52863       Node_13071306    456.00     0.0140     426.45     426.16     0          0

  
  ERROR 209: undefined object Node_52862 at line 1002 of [CONDUIT] section:
  C52862-T         Node_52862       Node_13081307    447.00     0.0140     428.74     428.47     0          0

  
  ERROR 209: undefined object Node_52861 at line 1003 of [CONDUIT] section:
  C52861           Node_52861       Node_13091308    238.00     0.0140     428.88     428.74     0          0

  
  ERROR 209: undefined object Node_52860 at line 1004 of [CONDUIT] section:
  C52860           Node_52860       Node_13101309    602.00     0.0140     429.24     428.88     0          0

  
  ERROR 209: undefined object Node_8300 at line 1005 of [CONDUIT] section:
  C08300           Node_8300        Node_13111310    577.00     0.0140     429.59     429.24     0          0

  
  ERROR 209: undefined object Node_8299 at line 1006 of [CONDUIT] section:
  C08299           Node_8299        Node_13121311    982.00     0.0140     430.17     429.59     0          0

  
  ERROR 209: undefined object Node_53000 at line 1007 of [CONDUIT] section:
  C53000           Node_53000       Node_13131312    949.00     0.0140     430.77     430.17     0          0

  
  ERROR 209: undefined object Node_8161 at line 1008 of [CONDUIT] section:
  C08161           Node_8161        Node_13141313    492.00     0.0140     431.52     431.27     0          0

  
  ERROR 209: undefined object Node_23101 at line 1009 of [CONDUIT] section:
  C23101           Node_23101       Node_13151314    483.00     0.0140     431.87     431.52     0          0

  
  ERROR 209: undefined object Node_23100 at line 1010 of [CONDUIT] section:
  C23100           Node_23100       Node_13161315    476.00     0.0140     432.10     431.87     0          0

  
  ERROR 209: undefined object Node_8160 at line 1011 of [CONDUIT] section:
  C08160           Node_8160        Node_13171316    400.00     0.0140     432.34     432.10     0          0

  
  ERROR 209: undefined object Node_8159 at line 1012 of [CONDUIT] section:
  C08159           Node_8159        Node_13181317    444.00     0.0140     432.42     432.34     0          0

  
  ERROR 209: undefined object Node_23103 at line 1013 of [CONDUIT] section:
  C23103           Node_23103       Node_13191318    413.00     0.0140     432.61     432.42     0          0

  
  ERROR 209: undefined object Node_8158 at line 1014 of [CONDUIT] section:
  C08158           Node_8158        Node_13201319    379.00     0.0140     432.79     432.61     0          0

  
  ERROR 209: undefined object Node_8157 at line 1015 of [CONDUIT] section:
  C08157           Node_8157        Node_13211320    615.00     0.0140     433.08     432.79     0          0

  
  ERROR 209: undefined object Node_8156 at line 1016 of [CONDUIT] section:
  C08156           Node_8156        Node_13221321    511.00     0.0140     433.32     433.08     0          0

  
  ERROR 209: undefined object Node_51913 at line 1017 of [CONDUIT] section:
  C51913           Node_51913       Node_13231322    477.00     0.0140     433.54     433.32     0          0

  
  ERROR 209: undefined object Node_8154 at line 1018 of [CONDUIT] section:
  C08154           Node_8154        Node_13241323    637.00     0.0140     433.85     433.54     0          0

  
  ERROR 209: undefined object Node_51906 at line 1019 of [CONDUIT] section:
  C51906           Node_51906       Node_13251324    600.00     0.0140     434.13     433.85     0          0

  
  ERROR 209: undefined object Node_23086 at line 1020 of [CONDUIT] section:
  C23086-BH        Node_23086       Node_13261325    600.00     0.0140     434.41     434.13     0          0

  
  ERROR 209: undefined object Node_8421 at line 1021 of [CONDUIT] section:
  C8421            Node_8421        Node_13261327    220.00     0.0090     434.41     416.45     0          0

  
  ERROR 209: undefined object Node_53062 at line 1022 of [CONDUIT] section:
  C53062           Node_53062       Node_13281285    130.00     0.0095     421.92     418.11     0          0

  
  ERROR 209: undefined object Node_53064 at line 1023 of [CONDUIT] section:
  C53064           Node_53064       Node_13291328    455.00     0.0130     422.49     421.92     0          0

  
  ERROR 209: undefined object Node_53064 at line 1024 of [CONDUIT] section:
  C53064-T         Node_53064       Node_13301329    482.00     0.0130     423.50     422.99     0          0

  
  ERROR 209: undefined object Node_8026 at line 1025 of [CONDUIT] section:
  C08026A-T        Node_8026        Node_13311330    293.00     0.0130     424.60     424.00     0          0

  
  ERROR 209: undefined object Node_76238 at line 1026 of [CONDUIT] section:
  C76238           Node_76238       Node_13321286    210.00     0.0064     425.21     415.62     0          0

  
  ERROR 209: undefined object Node_8649 at line 1027 of [CONDUIT] section:
  C08649           Node_8649        Node_13331332    934.00     0.0130     427.86     425.21     0          0

  
  ERROR 209: undefined object Node_53085 at line 1028 of [CONDUIT] section:
  C53085           Node_53085       Node_13341333    490.00     0.0130     428.59     427.86     0          0

  
  ERROR 209: undefined object Node_53085 at line 1029 of [CONDUIT] section:
  C53085A-T        Node_53085       Node_13351334    988.00     0.0130     430.77     429.09     0          0

  
  ERROR 209: undefined object Node_4018 at line 1030 of [CONDUIT] section:
  C04018           Node_4018        Node_13361335    951.00     0.0130     432.57     431.27     0          0

  
  ERROR 209: undefined object Node_4016 at line 1031 of [CONDUIT] section:
  C04016-X         Node_4016        Node_13371336    534.00     0.0130     434.17     432.57     0          0

  
  ERROR 209: undefined object Node_53081 at line 1032 of [CONDUIT] section:
  C53081-S         Node_53081       Node_13381286    170.00     0.0075     421.55     417.70     0          0

  
  ERROR 209: undefined object Node_53081 at line 1033 of [CONDUIT] section:
  C53081A-S        Node_53081       Node_13391338    235.00     0.0130     421.77     421.55     0          0

  
  ERROR 209: undefined object Node_53081 at line 1034 of [CONDUIT] section:
  C53081B-S        Node_53081       Node_13401339    120.00     0.0061     422.49     421.77     0          0

  
  ERROR 209: undefined object Node_8117 at line 1035 of [CONDUIT] section:
  C08117           Node_8117        Node_13411340    668.00     0.0130     423.10     422.49     0          0

  
  ERROR 209: undefined object Node_8020 at line 1036 of [CONDUIT] section:
  C08020           Node_8020        Node_13421341    918.00     0.0130     423.80     423.10     0          0

  
  ERROR 209: undefined object Node_8023 at line 1037 of [CONDUIT] section:
  C08023A-T        Node_8023        Node_13431342    1409.00    0.0130     425.52     423.80     0          0

  
  ERROR 209: undefined object Node_73298 at line 1038 of [CONDUIT] section:
  C73298-AG        Node_73298       Node_13441287    220.00     0.0042     425.09     419.67     0          0

  
  ERROR 209: undefined object Node_8120 at line 1039 of [CONDUIT] section:
  C08120           Node_8120        Node_13451344    930.00     0.0130     426.96     425.09     0          0

  
  ERROR 209: undefined object Node_53086 at line 1040 of [CONDUIT] section:
  C53086           Node_53086       Node_13461345    500.00     0.0130     428.45     427.46     0          0

  
  ERROR 209: undefined object Node_53089 at line 1041 of [CONDUIT] section:
  C53089           Node_53089       Node_13471346    948.00     0.0130     430.12     428.45     0          0

  
  ERROR 209: undefined object Node_8123 at line 1042 of [CONDUIT] section:
  C08123           Node_8123        Node_13481347    1000.00    0.0130     431.91     430.12     0          0

  
  ERROR 209: undefined object Node_97133 at line 1043 of [CONDUIT] section:
  C97133           Node_97133       Node_14661348    383.00     0.0130     432.56     431.91     0          0

  
  ERROR 209: undefined object Node_63876 at line 1044 of [CONDUIT] section:
  C63876           Node_63876       Node_13491287    225.00     0.0069     433.68     419.60     0          0

  
  ERROR 209: undefined object Node_8516 at line 1045 of [CONDUIT] section:
  C08516-T         Node_8516        Node_13501349    890.00     0.0150     438.24     433.68     0          0

  
  ERROR 209: undefined object Node_8520 at line 1046 of [CONDUIT] section:
  C08520           Node_8520        Node_13511350    878.00     0.0150     441.34     438.74     0          0

  
  ERROR 209: undefined object Node_53092 at line 1047 of [CONDUIT] section:
  C53092           Node_53092       Node_13521350    836.00     0.0150     441.03     438.94     0          0

  
  ERROR 209: undefined object Node_8136 at line 1048 of [CONDUIT] section:
  C08136           Node_8136        Node_13531289    150.00     0.0070     422.39     419.98     0          0

  
  ERROR 209: undefined object Node_8135 at line 1049 of [CONDUIT] section:
  C08135           Node_8135        Node_13541353    762.00     0.0130     424.98     422.39     0          0

  
  ERROR 209: undefined object Node_8134 at line 1050 of [CONDUIT] section:
  C08134           Node_8134        Node_13551354    916.00     0.0130     428.12     424.98     0          0

  
  ERROR 209: undefined object Node_8133 at line 1051 of [CONDUIT] section:
  C08133-T         Node_8133        Node_13561355    1149.00    0.0130     430.72     428.12     0          0

  
  ERROR 209: undefined object Node_8132 at line 1052 of [CONDUIT] section:
  C08132           Node_8132        Node_13571356    160.00     0.0075     442.50     431.47     0          0

  
  ERROR 209: undefined object Node_8476 at line 1053 of [CONDUIT] section:
  C08476           Node_8476        Node_13581357    500.00     0.0150     445.00     442.50     0          0

  
  ERROR 209: undefined object Node_85201 at line 1054 of [CONDUIT] section:
  C85201-D         Node_85201       Node_13591356    1150.00    0.0130     436.03     433.50     0          0

  
  ERROR 209: undefined object Node_5664 at line 1055 of [CONDUIT] section:
  C05664-AG        Node_5664        Node_13621290    150.00     0.0072     424.64     421.52     0          0

  
  ERROR 209: undefined object Node_73300 at line 1056 of [CONDUIT] section:
  C73300B-S        Node_73300       Node_13631362    1008.00    0.0130     433.78     424.64     0          0

  
  ERROR 209: undefined object Node_8063 at line 1057 of [CONDUIT] section:
  C8063            Node_8063        Node_14721363    120.00     0.0038     435.72     434.69     0          0

  
  ERROR 209: undefined object Node_75427 at line 1058 of [CONDUIT] section:
  C75427-T         Node_75427       Node_14721470    105.00     0.0066     436.39     435.70     0          0

  
  ERROR 209: undefined object Node_76742 at line 1059 of [CONDUIT] section:
  C76742           Node_76742       Node_14711472    1132.00    0.0150     436.56     435.72     0          0

  
  ERROR 209: undefined object Node_73300 at line 1060 of [CONDUIT] section:
  C73300A-T        Node_73300       Node_13641291    230.00     0.0052     434.72     423.00     0          0

  
  ERROR 209: undefined object Node_8029 at line 1061 of [CONDUIT] section:
  C08029           Node_8029        Node_13651364    615.00     0.0130     437.00     434.72     0          0

  
  ERROR 209: undefined object Node_8030 at line 1062 of [CONDUIT] section:
  C08030           Node_8030        Node_13661365    609.00     0.0150     437.87     437.00     0          0

  
  ERROR 209: undefined object Node_8543 at line 1063 of [CONDUIT] section:
  C08543           Node_8543        Node_13671366    736.00     0.0150     439.27     437.87     0          0

  
  ERROR 209: undefined object Node_8688 at line 1064 of [CONDUIT] section:
  C08688           Node_8688        Node_13681291    230.00     0.0063     432.29     422.50     0          0

  
  ERROR 209: undefined object Node_8692 at line 1065 of [CONDUIT] section:
  C08692           Node_8692        Node_13691368    285.00     0.0150     433.01     432.29     0          0

  
  ERROR 209: undefined object Node_8693 at line 1066 of [CONDUIT] section:
  C08693           Node_8693        Node_13701369    504.00     0.0150     434.27     433.01     0          0

  
  ERROR 209: undefined object Node_8694 at line 1067 of [CONDUIT] section:
  C08694           Node_8694        Node_13711370    351.00     0.0150     435.23     434.27     0          0

  
  ERROR 209: undefined object Node_5649 at line 1068 of [CONDUIT] section:
  C05649-T         Node_5649        Node_13721371    639.00     0.0150     437.25     435.23     0          0

  
  ERROR 209: undefined object Node_8035 at line 1069 of [CONDUIT] section:
  C08035           Node_8035        Node_13731292    315.00     0.0044     440.45     423.00     0          0

  
  ERROR 209: undefined object Node_8034 at line 1070 of [CONDUIT] section:
  C08034           Node_8034        Node_13741373    814.00     0.0130     443.30     440.45     0          0

  
  ERROR 209: undefined object Node_70117 at line 1071 of [CONDUIT] section:
  C70117           Node_70117       Node_13751374    674.00     0.0130     445.66     443.30     0          0

  
  ERROR 209: undefined object Node_8033 at line 1072 of [CONDUIT] section:
  C08033           Node_8033        Node_13761375    276.00     0.0130     446.21     445.66     0          0

  
  ERROR 209: undefined object Node_8482 at line 1073 of [CONDUIT] section:
  C08482-D         Node_8482        Node_13771295    450.00     0.0150     438.84     426.61     0          0

  
  Maximum error count exceeded.

  Analysis begun on:  Sat Mar  7 21:51:30 2026
  Analysis ended on:  Sat Mar  7 21:51:30 2026
  Total elapsed time: < 1 sec