
  EPA STORM WATER MANAGEMENT MODEL - VERSION 5.2 (Build 5.2.4)
  ------------------------------------------------------------

  
  ERROR 211: invalid number  at line 136 of [XSECT] section:
  RK9-OR           RECT_CLOSED  0.13       0          0          0          

  
  ERROR 211: invalid number  at line 137 of [XSECT] section:
  RK8-OR           RECT_CLOSED  0.13       0          0          0          


  Analysis begun on:  Sat Mar  7 21:51:34 2026
  Analysis ended on:  Sat Mar  7 21:51:34 2026
  Total elapsed time: < 1 sec