
  EPA STORM WATER MANAGEMENT MODEL - VERSION 5.2 (Build 5.2.4)
  ------------------------------------------------------------

  
  ERROR 209: undefined object ? at line 34 of [CONDUIT] section:
  203              ?                ?                400.00     0.0130     0.81       0          0          0

  
  ERROR 209: undefined object ? at line 35 of [CONDUIT] section:
  205              ?                ?                400.00     0.0130     0          -0.81      0          0

  
  ERROR 209: undefined object ? at line 36 of [CONDUIT] section:
  207              ?                ?                400.00     0.0130     -0.81      -1.62      0          0


  Analysis begun on:  Sat Mar  7 21:51:33 2026
  Analysis ended on:  Sat Mar  7 21:51:33 2026
  Total elapsed time: < 1 sec