
  EPA STORM WATER MANAGEMENT MODEL - VERSION 5.2 (Build 5.2.4)
  ------------------------------------------------------------

  
  ERROR 207: duplicate ID name 94.00 at line 61 of [JUNC] section:
  94.00            0          0          0          0          0

  
  ERROR 207: duplicate ID name 94.00l at line 300 of [JUNC] section:
  94.00l           0          0          0          0          0

  
  ERROR 207: duplicate ID name 21.00l at line 416 of [JUNC] section:
  21.00l           0          0          0          0          0

  
  ERROR 207: duplicate ID name 0 at line 428 of [CONDUIT] section:
  0                1.01             1.02             0          0          0          0          0          0

  
  ERROR 207: duplicate ID name 0 at line 429 of [CONDUIT] section:
  0                1.02             1.03J            0          0          0          0          0          0

  
  ERROR 207: duplicate ID name 0 at line 430 of [CONDUIT] section:
  0                1.03J            1.04J            0          0          0          0          0          0

  
  ERROR 207: duplicate ID name 0 at line 431 of [CONDUIT] section:
  0                1.04J            1.05             0          0          0          0          0          0

  
  ERROR 207: duplicate ID name 0 at line 432 of [CONDUIT] section:
  0                1.05             1.06             0          0          0          0          0          0

  
  ERROR 207: duplicate ID name 0 at line 433 of [CONDUIT] section:
  0                1.06             1.07J            0          0          0          0          0          0

  
  ERROR 207: duplicate ID name 0 at line 434 of [CONDUIT] section:
  0                1.07J            1.08             0          0          0          0          0          0

  
  ERROR 207: duplicate ID name 0 at line 435 of [CONDUIT] section:
  0                1.08             1.09E            0          0          0          0          0          0

  
  ERROR 207: duplicate ID name 0 at line 436 of [CONDUIT] section:
  0                1.09E            1.10             0          0          0          0          0          0

  
  ERROR 207: duplicate ID name 0 at line 437 of [CONDUIT] section:
  0                1.10             1.11             0          0          0          0          0          0

  
  ERROR 207: duplicate ID name 0 at line 438 of [CONDUIT] section:
  0                1.11             1.12             0          0          0          0          0          0

  
  ERROR 207: duplicate ID name 0 at line 439 of [CONDUIT] section:
  0                12.00            1.01             0          0          0          0          0          0

  
  ERROR 207: duplicate ID name 0 at line 440 of [CONDUIT] section:
  0                19.00            1.02             0          0          0          0          0          0

  
  ERROR 207: duplicate ID name 0 at line 441 of [CONDUIT] section:
  0                89.00            1.03J            0          0          0          0          0          0

  
  ERROR 207: duplicate ID name 0 at line 442 of [CONDUIT] section:
  0                88.00            1.04J            0          0          0          0          0          0

  
  ERROR 207: duplicate ID name 0 at line 443 of [CONDUIT] section:
  0                94.00            1.05             0          0          0          0          0          0

  
  ERROR 207: duplicate ID name 0 at line 444 of [CONDUIT] section:
  0                87.00            1.05             0          0          0          0          0          0

  
  ERROR 207: duplicate ID name 0 at line 445 of [CONDUIT] section:
  0                95.00            95.01J           0          0          0          0          0          0

  
  ERROR 207: duplicate ID name 0 at line 446 of [CONDUIT] section:
  0                95.01J           95.02            0          0          0          0          0          0

  
  ERROR 207: duplicate ID name 0 at line 447 of [CONDUIT] section:
  0                95.02            1.06             0          0          0          0          0          0

  
  ERROR 207: duplicate ID name 0 at line 448 of [CONDUIT] section:
  0                96.00            95.01J           0          0          0          0          0          0

  
  ERROR 207: duplicate ID name 0 at line 449 of [CONDUIT] section:
  0                99.00            1.07J            0          0          0          0          0          0

  
  ERROR 207: duplicate ID name 0 at line 450 of [CONDUIT] section:
  0                18.01            1.08             0          0          0          0          0          0

  
  ERROR 207: duplicate ID name 0 at line 451 of [CONDUIT] section:
  0                18.00            18.01            0          0          0          0          0          0

  
  ERROR 207: duplicate ID name 0 at line 452 of [CONDUIT] section:
  0                98.00            98.01J           0          0          0          0          0          0

  
  ERROR 207: duplicate ID name 0 at line 453 of [CONDUIT] section:
  0                98.01J           1.10             0          0          0          0          0          0

  
  ERROR 207: duplicate ID name 0 at line 454 of [CONDUIT] section:
  0                97.00            98.01J           0          0          0          0          0          0

  
  ERROR 207: duplicate ID name 0 at line 455 of [CONDUIT] section:
  0                55.00J           1.12             0          0          0          0          0          0

  
  ERROR 207: duplicate ID name 0 at line 456 of [CONDUIT] section:
  0                1.11             55.00J           0          0          0          0          0          0

  
  ERROR 207: duplicate ID name 0 at line 457 of [CONDUIT] section:
  0                8.15             1.12             0          0          0          0          0          0

  
  ERROR 207: duplicate ID name 0 at line 458 of [CONDUIT] section:
  0                10.06            8.14J            0          0          0          0          0          0

  
  ERROR 207: duplicate ID name 0 at line 459 of [CONDUIT] section:
  0                8.14J            8.15             0          0          0          0          0          0

  
  ERROR 207: duplicate ID name 0 at line 460 of [CONDUIT] section:
  0                8.15             55.00J           0          0          0          0          0          0

  
  ERROR 207: duplicate ID name 0 at line 461 of [CONDUIT] section:
  0                8.13J            8.14J            0          0          0          0          0          0

  
  ERROR 207: duplicate ID name 0 at line 462 of [CONDUIT] section:
  0                9.08             9.09             0          0          0          0          0          0

  
  ERROR 207: duplicate ID name 0 at line 463 of [CONDUIT] section:
  0                9.09             8.13J            0          0          0          0          0          0

  
  ERROR 207: duplicate ID name 0 at line 464 of [CONDUIT] section:
  0                9.01             9.02             0          0          0          0          0          0

  
  ERROR 207: duplicate ID name 0 at line 465 of [CONDUIT] section:
  0                9.02             9.03             0          0          0          0          0          0

  
  ERROR 207: duplicate ID name 0 at line 466 of [CONDUIT] section:
  0                9.03             9.04J            0          0          0          0          0          0

  
  ERROR 207: duplicate ID name 0 at line 467 of [CONDUIT] section:
  0                9.04J            9.05             0          0          0          0          0          0

  
  ERROR 207: duplicate ID name 0 at line 468 of [CONDUIT] section:
  0                9.05             9.06J            0          0          0          0          0          0

  
  ERROR 207: duplicate ID name 0 at line 469 of [CONDUIT] section:
  0                9.06J            9.07             0          0          0          0          0          0

  
  ERROR 207: duplicate ID name 0 at line 470 of [CONDUIT] section:
  0                9.07             9.08             0          0          0          0          0          0

  
  ERROR 207: duplicate ID name 0 at line 471 of [CONDUIT] section:
  0                93.00            9.06J            0          0          0          0          0          0

  
  ERROR 207: duplicate ID name 0 at line 472 of [CONDUIT] section:
  0                94.00            9.07             0          0          0          0          0          0

  
  ERROR 207: duplicate ID name 0 at line 473 of [CONDUIT] section:
  0                10.00            10.01J           0          0          0          0          0          0

  
  ERROR 207: duplicate ID name 0 at line 474 of [CONDUIT] section:
  0                10.01J           10.02            0          0          0          0          0          0

  
  ERROR 207: duplicate ID name 0 at line 475 of [CONDUIT] section:
  0                10.03E           10.04            0          0          0          0          0          0

  
  ERROR 207: duplicate ID name 0 at line 476 of [CONDUIT] section:
  0                10.04            10.05            0          0          0          0          0          0

  
  ERROR 207: duplicate ID name 0 at line 477 of [CONDUIT] section:
  0                10.05            10.06            0          0          0          0          0          0

  
  ERROR 207: duplicate ID name 0 at line 478 of [CONDUIT] section:
  0                8.00             8.01             0          0          0          0          0          0

  
  ERROR 207: duplicate ID name 0 at line 479 of [CONDUIT] section:
  0                8.01             8.02J            0          0          0          0          0          0

  
  ERROR 207: duplicate ID name 0 at line 480 of [CONDUIT] section:
  0                8.02J            8.03             0          0          0          0          0          0

  
  ERROR 207: duplicate ID name 0 at line 481 of [CONDUIT] section:
  0                8.03             8.04             0          0          0          0          0          0

  
  ERROR 207: duplicate ID name 0 at line 482 of [CONDUIT] section:
  0                8.04             8.05             0          0          0          0          0          0

  
  ERROR 207: duplicate ID name 0 at line 483 of [CONDUIT] section:
  0                8.05             8.06E            0          0          0          0          0          0

  
  ERROR 207: duplicate ID name 0 at line 484 of [CONDUIT] section:
  0                8.06E            8.07             0          0          0          0          0          0

  
  ERROR 207: duplicate ID name 0 at line 485 of [CONDUIT] section:
  0                8.09             8.10J            0          0          0          0          0          0

  
  ERROR 207: duplicate ID name 0 at line 486 of [CONDUIT] section:
  0                83.00            8.10J            0          0          0          0          0          0

  
  ERROR 207: duplicate ID name 0 at line 487 of [CONDUIT] section:
  0                8.10J            8.11             0          0          0          0          0          0

  
  ERROR 207: duplicate ID name 0 at line 488 of [CONDUIT] section:
  0                8.11             8.12J            0          0          0          0          0          0

  
  ERROR 207: duplicate ID name 0 at line 489 of [CONDUIT] section:
  0                8.12J            8.13J            0          0          0          0          0          0

  
  ERROR 207: duplicate ID name 0 at line 490 of [CONDUIT] section:
  0                85.00            8.12J            0          0          0          0          0          0

  
  ERROR 207: duplicate ID name 0 at line 491 of [CONDUIT] section:
  0                82.01            82.02            0          0          0          0          0          0

  
  ERROR 207: duplicate ID name 0 at line 492 of [CONDUIT] section:
  0                82.02            82.03            0          0          0          0          0          0

  
  ERROR 207: duplicate ID name 0 at line 493 of [CONDUIT] section:
  0                8.08             8.09             0          0          0          0          0          0

  
  ERROR 207: duplicate ID name 0 at line 494 of [CONDUIT] section:
  0                82.03            8.09             0          0          0          0          0          0

  
  ERROR 207: duplicate ID name 0 at line 495 of [CONDUIT] section:
  0                8.07             8.08             0          0          0          0          0          0

  
  ERROR 207: duplicate ID name 0 at line 496 of [CONDUIT] section:
  0                80.00            80.01J           0          0          0          0          0          0

  
  ERROR 207: duplicate ID name 0 at line 497 of [CONDUIT] section:
  0                80.01J           80.02            0          0          0          0          0          0

  
  ERROR 207: duplicate ID name 0 at line 498 of [CONDUIT] section:
  0                80.02            8.02J            0          0          0          0          0          0

  
  ERROR 207: duplicate ID name 0 at line 499 of [CONDUIT] section:
  0                81.00            80.01J           0          0          0          0          0          0

  
  ERROR 207: duplicate ID name 0 at line 500 of [CONDUIT] section:
  0                86.00            1.12             0          0          0          0          0          0

  
  ERROR 207: duplicate ID name 0 at line 501 of [CONDUIT] section:
  0                13.01            13.02J           0          0          0          0          0          0

  
  ERROR 207: duplicate ID name 0 at line 502 of [CONDUIT] section:
  0                13.02J           13.03            0          0          0          0          0          0

  
  ERROR 207: duplicate ID name 0 at line 503 of [CONDUIT] section:
  0                13.03            13.04J           0          0          0          0          0          0

  
  ERROR 207: duplicate ID name 0 at line 504 of [CONDUIT] section:
  0                13.04J           13.05            0          0          0          0          0          0

  
  ERROR 207: duplicate ID name 0 at line 505 of [CONDUIT] section:
  0                14.00            13.04J           0          0          0          0          0          0

  
  ERROR 207: duplicate ID name 0 at line 506 of [CONDUIT] section:
  0                15.00            13.02J           0          0          0          0          0          0

  
  ERROR 207: duplicate ID name 0 at line 507 of [CONDUIT] section:
  0                13.00            13.01            0          0          0          0          0          0

  
  ERROR 207: duplicate ID name 0 at line 508 of [CONDUIT] section:
  0                84.00            8.12J            0          0          0          0          0          0

  
  ERROR 207: duplicate ID name 0 at line 509 of [CONDUIT] section:
  0                1.12             1.13E            0          0          0          0          0          0

  
  ERROR 207: duplicate ID name 0 at line 510 of [CONDUIT] section:
  0                1.13E            1.14J            0          0          0          0          0          0

  
  ERROR 207: duplicate ID name 0 at line 511 of [CONDUIT] section:
  0                1.14J            1.15J            0          0          0          0          0          0

  
  ERROR 207: duplicate ID name 0 at line 512 of [CONDUIT] section:
  0                1.15J            1.16             0          0          0          0          0          0

  
  ERROR 207: duplicate ID name 0 at line 513 of [CONDUIT] section:
  0                1.16             1.17E            0          0          0          0          0          0

  
  ERROR 207: duplicate ID name 0 at line 514 of [CONDUIT] section:
  0                1.17E            1.18             0          0          0          0          0          0

  
  ERROR 207: duplicate ID name 0 at line 515 of [CONDUIT] section:
  0                1.18             1.19             0          0          0          0          0          0

  
  ERROR 207: duplicate ID name 0 at line 516 of [CONDUIT] section:
  0                1.19             1.20J            0          0          0          0          0          0

  
  ERROR 207: duplicate ID name 0 at line 517 of [CONDUIT] section:
  0                1.20J            1.21             0          0          0          0          0          0

  
  ERROR 207: duplicate ID name 0 at line 518 of [CONDUIT] section:
  0                13.05            1.20J            0          0          0          0          0          0

  
  ERROR 207: duplicate ID name 0 at line 519 of [CONDUIT] section:
  0                16.00            16.01            0          0          0          0          0          0

  
  ERROR 207: duplicate ID name 0 at line 520 of [CONDUIT] section:
  0                16.01            16.02J           0          0          0          0          0          0

  
  ERROR 207: duplicate ID name 0 at line 521 of [CONDUIT] section:
  0                16.02J           1.18             0          0          0          0          0          0

  
  ERROR 207: duplicate ID name 0 at line 522 of [CONDUIT] section:
  0                30.00            1.16             0          0          0          0          0          0

  
  ERROR 207: duplicate ID name 0 at line 523 of [CONDUIT] section:
  0                64.00            64.01            0          0          0          0          0          0

  
  ERROR 207: duplicate ID name 0 at line 524 of [CONDUIT] section:
  0                64.01            1.15J            0          0          0          0          0          0


  Analysis begun on:  Sat Mar  7 21:51:24 2026
  Analysis ended on:  Sat Mar  7 21:51:24 2026
  Total elapsed time: < 1 sec