
  EPA STORM WATER MANAGEMENT MODEL - VERSION 5.2 (Build 5.2.4)
  ------------------------------------------------------------

  
  ERROR 209: undefined object ? at line 68 of [CONDUIT] section:
  249              ?                ?                150.00     0.0130     153.11     151.57     0          0

  
  ERROR 211: invalid number  at line 99 of [XSECT] section:
  dummy            RECT_CLOSED  5.00       0          0          0          

  
  ERROR 211: invalid number  at line 100 of [XSECT] section:
  WEIR1            RECT_OPEN    0          1.50       0          0          


  Analysis begun on:  Sat Mar  7 21:51:24 2026
  Analysis ended on:  Sat Mar  7 21:51:24 2026
  Total elapsed time: < 1 sec