
  EPA STORM WATER MANAGEMENT MODEL - VERSION 5.2 (Build 5.2.4)
  ------------------------------------------------------------

  
  ERROR 209: undefined object road at line 43 of [CONDUIT] section:
  spana            road             spanb            10.00      0.0140     88.01      88.01      0          0

  
  ERROR 209: undefined object 9.00 at line 53 of [XSECT] section:
  upstrm           IRREGULAR    9.00       0          0          0          1

  
  ERROR 209: undefined object 0 at line 54 of [XSECT] section:
  dnstrm           IRREGULAR    0          0          0          0          1

  
  ERROR 211: invalid number 0 at line 55 of [XSECT] section:
  spana            CUSTOM       0          0          0          0          1

  
  ERROR 211: invalid number  at line 56 of [XSECT] section:
  207              POWER        5.00       5.00       0          0          1

  
  ERROR 211: invalid number  at line 57 of [XSECT] section:
  208              POWER        5.00       5.00       0          0          1

  
  ERROR 211: invalid number  at line 58 of [XSECT] section:
  209              POWER        5.00       5.00       0          0          1

  
  ERROR 211: invalid number  at line 59 of [XSECT] section:
  210              POWER        5.00       5.00       0          0          1

  
  ERROR 211: invalid number  at line 60 of [XSECT] section:
  211              POWER        5.00       5.00       0          0          1


  Analysis begun on:  Sat Mar  7 21:51:32 2026
  Analysis ended on:  Sat Mar  7 21:51:32 2026
  Total elapsed time: < 1 sec