
  EPA STORM WATER MANAGEMENT MODEL - VERSION 5.2 (Build 5.2.4)
  ------------------------------------------------------------

  
  ERROR 209: undefined object SS2013012 at line 827 of [CONDUIT] section:
  SS1013012        SS2013012        SS0012           200.00     0.0140     0          0          0          0

  
  ERROR 209: undefined object SS2030029 at line 846 of [CONDUIT] section:
  SS1030029        SS2030029        SS0029           130.00     0.0140     0          0          0          0

  
  ERROR 209: undefined object SS2094093 at line 910 of [CONDUIT] section:
  SS1094093        SS2094093        SS0093           532.00     0.0150     0          0          0          0

  
  ERROR 209: undefined object SS2095094 at line 911 of [CONDUIT] section:
  SS1095094        SS2095094        SS0094           168.00     0.0150     0          0          0          0

  
  ERROR 209: undefined object SS2106105 at line 922 of [CONDUIT] section:
  SS1106105        SS2106105        SS0105           223.00     0.0150     0          0          0          0

  
  ERROR 209: undefined object ? at line 970 of [CONDUIT] section:
  SS0155154        ?                ?                318.00     0.0150     347.98     347.60     0          0

  
  ERROR 209: undefined object SS2301615 at line 1122 of [CONDUIT] section:
  SS1301615        SS2301615        SS0615           28.00      0.0130     1.15       1.55       0          0

  
  ERROR 209: undefined object Node_388387 at line 1214 of [CONDUIT] section:
  SS0388387        Node_388387      Node_1000998     1030.00    0.0110     383.29     382.24     0          0

  
  ERROR 209: undefined object Node_389388 at line 1215 of [CONDUIT] section:
  SS0389388        Node_389388      Node_10021000    990.00     0.0110     384.35     383.29     0          0

  
  ERROR 209: undefined object Node_390389 at line 1216 of [CONDUIT] section:
  SS0390389        Node_390389      Node_10041002    1130.00    0.0110     385.55     384.35     0          0

  
  ERROR 209: undefined object Node_391390 at line 1217 of [CONDUIT] section:
  SS0391390        Node_391390      Node_10061004    1050.00    0.0110     386.66     385.55     0          0

  
  ERROR 209: undefined object SS2392391 at line 1218 of [CONDUIT] section:
  SS1392391        SS2392391        Node_10081006    105.00     0.0110     0          0          0          0

  
  ERROR 209: undefined object Node_393392 at line 1219 of [CONDUIT] section:
  SS0393392        Node_393392      Node_10101008    152.00     0.0110     387.17     386.79     0          0

  
  ERROR 209: undefined object Node_394393 at line 1220 of [CONDUIT] section:
  SS0394393        Node_394393      Node_10121010    1040.00    0.0110     388.60     387.17     0          0

  
  ERROR 209: undefined object Node_395394 at line 1221 of [CONDUIT] section:
  SS0395394        Node_395394      Node_10141012    940.00     0.0110     390.03     388.60     0          0

  
  ERROR 209: undefined object Node_396395 at line 1222 of [CONDUIT] section:
  SS0396395        Node_396395      Node_10161014    896.00     0.0110     391.26     390.03     0          0

  
  ERROR 209: undefined object Node_397396 at line 1223 of [CONDUIT] section:
  SS0397396        Node_397396      Node_10181016    716.00     0.0110     392.24     391.26     0          0

  
  ERROR 209: undefined object Node_398397 at line 1224 of [CONDUIT] section:
  SS0398397        Node_398397      Node_10201018    990.00     0.0110     393.25     392.24     0          0

  
  ERROR 209: undefined object Node_399398 at line 1225 of [CONDUIT] section:
  SS0399398        Node_399398      Node_10221020    920.00     0.0110     394.25     393.25     0          0

  
  ERROR 209: undefined object Node_400399 at line 1226 of [CONDUIT] section:
  SS0400399        Node_400399      Node_10241022    580.00     0.0110     394.92     394.25     0          0

  
  ERROR 209: undefined object Node_401400 at line 1227 of [CONDUIT] section:
  SS0401400        Node_401400      Node_10261024    920.00     0.0110     395.92     394.92     0          0

  
  ERROR 209: undefined object Node_402401 at line 1228 of [CONDUIT] section:
  SS0402401        Node_402401      Node_10281026    996.00     0.0110     396.96     395.92     0          0

  
  ERROR 209: undefined object Node_403402 at line 1229 of [CONDUIT] section:
  SS0403402        Node_403402      Node_10301028    939.00     0.0110     401.49     396.96     0          0

  
  ERROR 209: undefined object Node_404403 at line 1230 of [CONDUIT] section:
  SS0404403        Node_404403      Node_10321030    400.00     0.0110     401.84     401.49     0          0

  
  ERROR 209: undefined object Node_405404 at line 1231 of [CONDUIT] section:
  SS0405404        Node_405404      Node_10341032    189.00     0.0110     401.93     401.84     0          0

  
  ERROR 209: undefined object Node_406405 at line 1232 of [CONDUIT] section:
  SS0406405        Node_406405      Node_10361034    160.00     0.0110     402.03     401.93     0          0

  
  ERROR 209: undefined object Node_407406 at line 1233 of [CONDUIT] section:
  SS0407406        Node_407406      Node_10381036    341.00     0.0110     402.46     402.03     0          0

  
  ERROR 209: undefined object Node_408407 at line 1234 of [CONDUIT] section:
  SS0408407        Node_408407      Node_10401038    1180.00    0.0110     403.53     402.46     0          0

  
  ERROR 209: undefined object Node_409408 at line 1235 of [CONDUIT] section:
  SS0409408        Node_409408      Node_10421040    1052.00    0.0110     404.43     403.53     0          0

  
  ERROR 209: undefined object Node_410409 at line 1236 of [CONDUIT] section:
  SS0410409        Node_410409      Node_10441042    282.00     0.0110     404.69     404.43     0          0

  
  ERROR 209: undefined object SS2411410 at line 1237 of [CONDUIT] section:
  SS1411410        SS2411410        Node_10461044    186.90     0.0110     0          0          0          0

  
  ERROR 209: undefined object Node_412411 at line 1238 of [CONDUIT] section:
  SS0412411        Node_412411      Node_10481046    773.00     0.0110     406.28     405.58     0          0

  
  ERROR 209: undefined object Node_413412 at line 1239 of [CONDUIT] section:
  SS0413412        Node_413412      Node_10501048    125.00     0.0110     406.39     406.28     0          0

  
  ERROR 209: undefined object Node_414413 at line 1240 of [CONDUIT] section:
  SS0414413        Node_414413      Node_10521050    839.00     0.0110     407.15     406.39     0          0

  
  ERROR 209: undefined object Node_415414 at line 1241 of [CONDUIT] section:
  SS0415414        Node_415414      Node_10541052    1018.00    0.0110     408.05     407.15     0          0

  
  ERROR 209: undefined object Node_416415 at line 1242 of [CONDUIT] section:
  SS0416415        Node_416415      Node_10561054    912.00     0.0110     408.87     408.05     0          0

  
  ERROR 209: undefined object Node_417416 at line 1243 of [CONDUIT] section:
  SS0417416        Node_417416      Node_10581056    492.00     0.0110     409.37     408.87     0          0

  
  ERROR 209: undefined object Node_418417 at line 1244 of [CONDUIT] section:
  SS0418417        Node_418417      Node_10601058    776.00     0.0110     410.91     409.37     0          0

  
  ERROR 209: undefined object Node_419418 at line 1245 of [CONDUIT] section:
  SS0419418        Node_419418      Node_10621060    710.00     0.0110     412.33     410.91     0          0

  
  ERROR 209: undefined object Node_420419 at line 1246 of [CONDUIT] section:
  SS0420419        Node_420419      Node_10641062    848.50     0.0110     416.78     412.33     0          0

  
  ERROR 209: undefined object Node_421392 at line 1247 of [CONDUIT] section:
  SS0421392        Node_421392      Node_10661008    1617.00    0.0140     388.77     387.15     0          0

  
  ERROR 209: undefined object Node_422421 at line 1248 of [CONDUIT] section:
  SS0422421        Node_422421      Node_10681066    74.00      0.0140     388.85     388.77     0          0

  
  ERROR 209: undefined object Node_423422 at line 1249 of [CONDUIT] section:
  SS0423422        Node_423422      Node_10701068    2139.00    0.0140     390.73     388.85     0          0

  
  ERROR 209: undefined object Node_424423 at line 1250 of [CONDUIT] section:
  SS0424423        Node_424423      Node_10721070    589.00     0.0140     391.32     390.73     0          0

  
  ERROR 209: undefined object Node_425424 at line 1251 of [CONDUIT] section:
  SS0425424        Node_425424      Node_10741072    2757.00    0.0140     394.08     391.32     0          0

  
  ERROR 209: undefined object Node_426425 at line 1252 of [CONDUIT] section:
  SS0426425        Node_426425      Node_10761074    121.00     0.0140     394.52     394.40     0          0

  
  ERROR 209: undefined object Node_427426 at line 1253 of [CONDUIT] section:
  SS0427426        Node_427426      Node_10781076    800.00     0.0140     395.60     394.80     0          0

  
  ERROR 209: undefined object Node_428427 at line 1254 of [CONDUIT] section:
  SS0428427        Node_428427      Node_10801078    382.00     0.0140     395.98     395.60     0          0

  
  ERROR 209: undefined object Node_429428 at line 1255 of [CONDUIT] section:
  SS0429428        Node_429428      Node_10821080    942.00     0.0140     396.92     395.98     0          0

  
  ERROR 209: undefined object Node_430429 at line 1256 of [CONDUIT] section:
  SS0430429        Node_430429      Node_10841082    1492.00    0.0140     404.39     400.00     0          0

  
  ERROR 209: undefined object Node_431430 at line 1257 of [CONDUIT] section:
  SS0431430        Node_431430      Node_10861084    242.00     0.0140     405.20     404.39     0          0

  
  ERROR 209: undefined object Node_432431 at line 1258 of [CONDUIT] section:
  SS0432431        Node_432431      Node_10881086    244.00     0.0140     405.93     405.20     0          0

  
  ERROR 209: undefined object Node_433397 at line 1259 of [CONDUIT] section:
  SS0433397        Node_433397      Node_10901018    2384.00    0.0140     406.01     395.33     0          0

  
  ERROR 209: undefined object Node_434433 at line 1260 of [CONDUIT] section:
  SS0434433        Node_434433      Node_10921090    68.00      0.0140     406.30     406.01     0          0

  
  ERROR 209: undefined object Node_435434 at line 1261 of [CONDUIT] section:
  SS0435434        Node_435434      Node_10941092    1420.00    0.0140     420.80     415.50     0          0

  
  ERROR 209: undefined object Node_436435 at line 1262 of [CONDUIT] section:
  SS0436435        Node_436435      Node_10961094    261.00     0.0140     421.32     420.80     0          0

  
  ERROR 209: undefined object Node_437436 at line 1263 of [CONDUIT] section:
  SS0437436        Node_437436      Node_10981096    339.00     0.0140     422.00     421.32     0          0

  
  ERROR 209: undefined object Node_438437 at line 1264 of [CONDUIT] section:
  SS0438437        Node_438437      Node_11001098    404.00     0.0140     422.82     422.00     0          0

  
  ERROR 209: undefined object Node_439438 at line 1265 of [CONDUIT] section:
  SS0439438        Node_439438      Node_11021100    534.00     0.0140     423.88     422.82     0          0

  
  ERROR 209: undefined object Node_440409 at line 1266 of [CONDUIT] section:
  SS0440409        Node_440409      Node_11041042    280.00     0.0140     407.60     406.80     0          0

  
  ERROR 209: undefined object Node_441440 at line 1267 of [CONDUIT] section:
  SS0441440        Node_441440      Node_11061104    1021.00    0.0140     408.82     407.60     0          0

  
  ERROR 209: undefined object Node_442441 at line 1268 of [CONDUIT] section:
  SS0442441        Node_442441      Node_11081106    1897.00    0.0140     411.09     408.82     0          0

  
  ERROR 209: undefined object Node_443442 at line 1269 of [CONDUIT] section:
  SS0443442        Node_443442      Node_11101108    475.00     0.0140     411.77     411.09     0          0

  
  ERROR 209: undefined object Node_444443 at line 1270 of [CONDUIT] section:
  SS0444443        Node_444443      Node_11121110    645.00     0.0140     414.77     411.77     0          0

  
  ERROR 209: undefined object Node_445444 at line 1271 of [CONDUIT] section:
  SS0445444        Node_445444      Node_11141112    965.00     0.0140     416.73     414.77     0          0

  
  ERROR 209: undefined object Node_446445 at line 1272 of [CONDUIT] section:
  SS0446445        Node_446445      Node_11161114    1000.00    0.0140     418.53     416.73     0          0

  
  ERROR 209: undefined object Node_447446 at line 1273 of [CONDUIT] section:
  SS0447446        Node_447446      Node_11181116    1214.00    0.0140     420.71     418.53     0          0

  
  ERROR 209: undefined object Node_448447 at line 1274 of [CONDUIT] section:
  SS0448447        Node_448447      Node_11201118    1087.00    0.0140     424.29     420.71     0          0

  
  ERROR 209: undefined object Node_449448 at line 1275 of [CONDUIT] section:
  SS0449448        Node_449448      Node_11221120    763.00     0.0140     426.95     424.29     0          0

  
  ERROR 209: undefined object Node_450449 at line 1276 of [CONDUIT] section:
  SS0450449        Node_450449      Node_11241122    885.00     0.0140     429.97     426.95     0          0

  
  ERROR 209: undefined object Node_451444 at line 1277 of [CONDUIT] section:
  SS0451444        Node_451444      Node_11261112    16.00      0.0140     419.30     415.10     0          0

  
  ERROR 209: undefined object Node_452451 at line 1278 of [CONDUIT] section:
  SS0452451        Node_452451      Node_11281126    2108.00    0.0140     425.63     419.30     0          0

  
  ERROR 209: undefined object Node_453452 at line 1279 of [CONDUIT] section:
  SS0453452        Node_453452      Node_11301128    883.00     0.0140     427.63     425.63     0          0

  
  ERROR 209: undefined object Node_454453 at line 1280 of [CONDUIT] section:
  SS0454453        Node_454453      Node_11321130    279.00     0.0140     428.68     427.63     0          0

  
  ERROR 209: undefined object Node_455454 at line 1281 of [CONDUIT] section:
  SS0455454        Node_455454      Node_11341132    940.00     0.0140     431.72     428.68     0          0

  
  ERROR 209: undefined object Node_456455 at line 1282 of [CONDUIT] section:
  SS0456455        Node_456455      Node_11361134    200.00     0.0140     431.85     431.72     0          0

  
  ERROR 209: undefined object Node_457456 at line 1283 of [CONDUIT] section:
  SS0457456        Node_457456      Node_11381136    645.00     0.0140     433.14     431.85     0          0

  
  ERROR 209: undefined object Node_458450 at line 1284 of [CONDUIT] section:
  SS0458450        Node_458450      Node_11401124    36.00      0.0140     433.04     429.97     0          0

  
  ERROR 209: undefined object Node_459458 at line 1285 of [CONDUIT] section:
  SS0459458        Node_459458      Node_11421140    882.00     0.0140     435.34     433.34     0          0

  
  ERROR 209: undefined object Node_460459 at line 1286 of [CONDUIT] section:
  SS0460459        Node_460459      Node_11441142    758.00     0.0140     437.54     435.34     0          0

  
  ERROR 209: undefined object Node_461460 at line 1287 of [CONDUIT] section:
  SS0461460        Node_461460      Node_11461144    1217.00    0.0140     444.36     437.54     0          0

  
  ERROR 209: undefined object Node_462461 at line 1288 of [CONDUIT] section:
  SS0462461        Node_462461      Node_11481146    721.00     0.0140     449.81     444.36     0          0

  
  ERROR 209: undefined object Node_463462 at line 1289 of [CONDUIT] section:
  SS0463462        Node_463462      Node_11501148    344.00     0.0140     452.38     449.81     0          0

  
  ERROR 209: undefined object Node_464463 at line 1290 of [CONDUIT] section:
  SS0464463        Node_464463      Node_11521150    1322.00    0.0140     459.85     452.38     0          0

  
  ERROR 209: undefined object Node_465464 at line 1291 of [CONDUIT] section:
  SS0465464        Node_465464      Node_11541152    534.00     0.0140     464.58     459.85     0          0

  
  ERROR 209: undefined object Node_466417 at line 1292 of [CONDUIT] section:
  SS0466417        Node_466417      Node_11561058    490.00     0.0140     413.40     412.23     0          0

  
  ERROR 209: undefined object Node_467466 at line 1293 of [CONDUIT] section:
  SS0467466        Node_467466      Node_11581156    185.00     0.0140     413.98     413.40     0          0

  
  ERROR 209: undefined object Node_468467 at line 1294 of [CONDUIT] section:
  SS0468467        Node_468467      Node_11601158    405.00     0.0140     415.24     413.98     0          0

  
  ERROR 209: undefined object Node_468775 at line 1295 of [CONDUIT] section:
  SS0468775        Node_468775      Node_11601162    505.70     0.0250     416.74     410.24     0          0

  
  ERROR 209: undefined object Node_469468 at line 1296 of [CONDUIT] section:
  SS0469468        Node_469468      Node_11641160    64.00      0.0140     424.77     416.35     0          0

  
  ERROR 209: undefined object Node_469774 at line 1297 of [CONDUIT] section:
  SS0469774        Node_469774      Node_11641166    774.00     0.0250     426.27     418.07     0          0

  
  ERROR 209: undefined object Node_470469 at line 1298 of [CONDUIT] section:
  SS0470469        Node_470469      Node_11681164    894.00     0.0140     451.68     425.03     0          0

  
  ERROR 209: undefined object Node_471470 at line 1299 of [CONDUIT] section:
  SS0471470        Node_471470      Node_11701168    917.00     0.0140     452.91     451.68     0          0

  
  ERROR 209: undefined object Node_472471 at line 1300 of [CONDUIT] section:
  SS0472471        Node_472471      Node_11721170    1261.00    0.0140     453.69     452.91     0          0

  
  ERROR 209: undefined object Node_473472 at line 1301 of [CONDUIT] section:
  SS0473472        Node_473472      Node_11741172    1650.00    0.0140     454.71     453.69     0          0

  
  ERROR 209: undefined object Node_474473 at line 1302 of [CONDUIT] section:
  SS0474473        Node_474473      Node_11761174    1851.00    0.0140     455.87     454.71     0          0

  
  ERROR 209: undefined object Node_475474 at line 1303 of [CONDUIT] section:
  SS0475474        Node_475474      Node_11781176    89.00      0.0140     455.92     455.87     0          0

  
  ERROR 209: undefined object Node_476475 at line 1304 of [CONDUIT] section:
  SS0476475        Node_476475      Node_11801178    1912.00    0.0140     469.60     455.92     0          0

  
  ERROR 209: undefined object Node_477476 at line 1305 of [CONDUIT] section:
  SS0477476        Node_477476      Node_11821180    100.00     0.0140     469.91     469.60     0          0

  
  ERROR 209: undefined object Node_478477 at line 1306 of [CONDUIT] section:
  SSA478477        Node_478477      Node_11841182    100.00     0.0150     470.22     469.91     0          0

  
  Maximum error count exceeded.

  Analysis begun on:  Sat Mar  7 21:51:24 2026
  Analysis ended on:  Sat Mar  7 21:51:24 2026
  Total elapsed time: < 1 sec