
  EPA STORM WATER MANAGEMENT MODEL - VERSION 5.2 (Build 5.2.4)
  ------------------------------------------------------------

  
  ERROR 209: undefined object OVERFLOW at line 49 of [CONDUIT] section:
  DUMMY            OVERFLOW         DET              100.00     0.0350     263.00     262.00     0          0


  Analysis begun on:  Sat Mar  7 21:51:32 2026
  Analysis ended on:  Sat Mar  7 21:51:32 2026
  Total elapsed time: < 1 sec