
  EPA STORM WATER MANAGEMENT MODEL - VERSION 5.2 (Build 5.2.4)
  ------------------------------------------------------------

  
  ERROR 209: undefined object 17110O at line 138 of [CONDUIT] section:
  17110P           17110O           5971             374.00     0.0130     96.61      95.49      0          0

  
  ERROR 209: undefined object 17112O at line 139 of [CONDUIT] section:
  17112P           17112O           5973             344.00     0.0130     95.31      94.84      0          0

  
  ERROR 209: undefined object 17113O at line 140 of [CONDUIT] section:
  17113P           17113O           5975             71.00      0.0130     94.82      94.75      0          0

  
  ERROR 209: undefined object 17114O at line 141 of [CONDUIT] section:
  17114P           17114O           5975             37.00      0.0130     94.80      94.75      0          0

  
  ERROR 209: undefined object 17111O at line 142 of [CONDUIT] section:
  17111P           17111O           5972             131.00     0.0130     95.49      95.31      0          0

  
  ERROR 209: undefined object 17115O at line 143 of [CONDUIT] section:
  17115P           17115O           5976             265.00     0.0130     94.75      94.49      0          0

  
  ERROR 209: undefined object 17117O at line 144 of [CONDUIT] section:
  17117P           17117O           6103             109.00     0.0130     94.49      94.32      0          0

  
  ERROR 209: undefined object 17225O at line 145 of [CONDUIT] section:
  17225P           17225O           6084             220.00     0.0130     94.79      94.37      0          0

  
  ERROR 209: undefined object 17226O at line 146 of [CONDUIT] section:
  17226P           17226O           6103             29.00      0.0130     94.37      94.32      0          0

  
  ERROR 209: undefined object 17224O at line 147 of [CONDUIT] section:
  17224P           17224O           6083             230.00     0.0130     95.23      94.79      0          0

  
  ERROR 209: undefined object 17223O at line 148 of [CONDUIT] section:
  17223P           17223O           6082             459.00     0.0130     96.10      95.23      0          0

  
  ERROR 209: undefined object 17177O at line 149 of [CONDUIT] section:
  17177P           17177O           6040             63.00      0.0130     93.21      93.03      0          0

  
  ERROR 209: undefined object 17168O at line 150 of [CONDUIT] section:
  17168P           17168O           6031             193.00     0.0130     93.03      92.49      0          0

  
  ERROR 209: undefined object 17159O at line 151 of [CONDUIT] section:
  17159P           17159O           6022             52.00      0.0130     92.49      92.34      0          0

  
  ERROR 209: undefined object 17103O at line 152 of [CONDUIT] section:
  17103P           17103O           5964             301.00     0.0130     89.34      88.74      0          0

  
  ERROR 209: undefined object 17104O at line 153 of [CONDUIT] section:
  17104P           17104O           5965             160.00     0.0130     88.74      88.42      0          0

  
  ERROR 209: undefined object 17105O at line 154 of [CONDUIT] section:
  17105P           17105O           5966             81.00      0.0130     88.42      88.26      0          0

  
  ERROR 209: undefined object 17151O at line 155 of [CONDUIT] section:
  17151P           17151O           6022             400.00     0.0130     89.70      89.34      0          0

  
  ERROR 209: undefined object 17142O at line 156 of [CONDUIT] section:
  17142P           17142O           6013             400.00     0.0130     90.10      89.70      0          0

  
  ERROR 209: undefined object 17125O at line 157 of [CONDUIT] section:
  17125P           17125O           5995             193.00     0.0130     92.51      91.93      0          0

  
  ERROR 209: undefined object 17133O at line 158 of [CONDUIT] section:
  17133P           17133O           6004             52.00      0.0130     90.26      90.10      0          0

  
  ERROR 209: undefined object 17094O at line 159 of [CONDUIT] section:
  17094P           17094O           6004             397.00     0.0130     90.50      90.10      0          0

  
  ERROR 209: undefined object 17093O at line 160 of [CONDUIT] section:
  17093P           17093O           5955             398.00     0.0130     90.90      90.50      0          0

  
  ERROR 209: undefined object 17086O at line 161 of [CONDUIT] section:
  17086P           17086O           5947             193.00     0.0130     91.60      91.04      0          0

  
  ERROR 209: undefined object 17085O at line 162 of [CONDUIT] section:
  17085P           17085O           5946             52.00      0.0130     91.04      90.90      0          0

  
  ERROR 209: undefined object 17082O at line 163 of [CONDUIT] section:
  17082P           17082O           5949             487.00     0.0130     93.06      92.08      0          0

  
  ERROR 209: undefined object 17090O at line 164 of [CONDUIT] section:
  17090P           17090O           5951             190.00     0.0130     92.40      92.02      0          0

  
  ERROR 209: undefined object 17088O at line 165 of [CONDUIT] section:
  17088P           17088O           5949             37.00      0.0130     92.02      91.95      0          0

  
  ERROR 209: undefined object 17091O at line 166 of [CONDUIT] section:
  17091P           17091O           5952             64.00      0.0130     92.90      92.40      0          0

  
  ERROR 209: undefined object 17092O at line 167 of [CONDUIT] section:
  17092P           17092O           5953             38.00      0.0130     93.05      92.90      0          0

  
  ERROR 209: undefined object 17222O at line 168 of [CONDUIT] section:
  17222P           17222O           5954             255.00     0.0130     93.85      93.05      0          0

  
  ERROR 209: undefined object 17220O at line 169 of [CONDUIT] section:
  17220P           17220O           6080             327.00     0.0130     94.51      93.85      0          0

  
  ERROR 209: undefined object 17081O at line 170 of [CONDUIT] section:
  17081P           17081O           5953             487.00     0.0130     95.47      94.50      0          0

  
  ERROR 209: undefined object 17084O at line 171 of [CONDUIT] section:
  17084P           17084O           5946             402.00     0.0130     91.70      90.90      0          0

  
  ERROR 209: undefined object 17083O at line 172 of [CONDUIT] section:
  17083P           17083O           5945             385.00     0.0130     92.47      91.70      0          0

  
  ERROR 209: undefined object 17096O at line 173 of [CONDUIT] section:
  17096P           17096O           5944             260.00     0.0130     93.19      92.44      0          0

  
  ERROR 209: undefined object 17095O at line 174 of [CONDUIT] section:
  17095P           17095O           5957             355.00     0.0130     94.25      93.19      0          0

  
  ERROR 209: undefined object 17107O at line 175 of [CONDUIT] section:
  17107P           17107O           5986             390.00     0.0130     94.40      93.62      0          0

  
  ERROR 209: undefined object 17116O at line 176 of [CONDUIT] section:
  17116P           17116O           5977             63.00      0.0130     92.69      92.51      0          0

  
  ERROR 209: undefined object 17098O at line 177 of [CONDUIT] section:
  17098P           17098O           5986             37.00      0.0130     92.76      92.69      0          0

  
  ERROR 209: undefined object 17089O at line 178 of [CONDUIT] section:
  17089P           17089O           5959             190.00     0.0130     93.14      92.76      0          0

  
  ERROR 209: undefined object 17080O at line 179 of [CONDUIT] section:
  17080P           17080O           5950             100.00     0.0130     93.44      93.14      0          0

  
  ERROR 209: undefined object 17154O at line 180 of [CONDUIT] section:
  17154P           17154O           6011             187.00     0.0130     89.15      88.96      0          0

  
  ERROR 209: undefined object 17157O at line 181 of [CONDUIT] section:
  17157P           17157O           6012             35.00      0.0130     93.50      93.15      0          0

  
  ERROR 209: undefined object 17156O at line 182 of [CONDUIT] section:
  17156P           17156O           6012             25.00      0.0130     94.25      94.00      0          0

  
  ERROR 209: undefined object 17155O at line 183 of [CONDUIT] section:
  17155P           17155O           5993             322.00     0.0130     88.96      88.64      0          0

  
  ERROR 209: undefined object 17134O at line 184 of [CONDUIT] section:
  17134P           17134O           5994             119.00     0.0130     88.47      88.41      0          0

  
  ERROR 209: undefined object 17135O at line 185 of [CONDUIT] section:
  17135P           17135O           5996             150.00     0.0130     88.41      88.34      0          0

  
  ERROR 209: undefined object 17136O at line 186 of [CONDUIT] section:
  17136P           17136O           5961             195.00     0.0130     88.34      88.24      0          0

  
  ERROR 209: undefined object 17097O at line 187 of [CONDUIT] section:
  17097P           17097O           5960             268.00     0.0130     93.39      92.59      0          0

  
  ERROR 209: undefined object 17099O at line 188 of [CONDUIT] section:
  17099P           17099O           5961             68.00      0.0130     92.59      92.45      0          0

  
  ERROR 209: undefined object 17100O at line 189 of [CONDUIT] section:
  17100P           17100O           5962             58.00      0.0130     88.24      88.12      0          0

  
  ERROR 209: undefined object 17101O at line 190 of [CONDUIT] section:
  17101P           17101O           5963             163.00     0.0130     88.12      87.79      0          0

  
  ERROR 209: undefined object 17248O at line 191 of [CONDUIT] section:
  17248P           17248O           6049             280.00     0.0130     93.77      93.21      0          0

  
  ERROR 209: undefined object 17257O at line 192 of [CONDUIT] section:
  17257P           17257O           6112             240.00     0.0130     94.25      93.77      0          0

  
  ERROR 209: undefined object 17138O at line 193 of [CONDUIT] section:
  17138P           17138O           5999             288.00     0.0130     89.70      89.40      0          0

  
  ERROR 209: undefined object 17137O at line 194 of [CONDUIT] section:
  17137P           17137O           5998             120.00     0.0130     89.82      89.70      0          0

  
  ERROR 209: undefined object 17139O at line 195 of [CONDUIT] section:
  17139P           17139O           6000             40.00      0.0130     89.40      89.36      0          0

  
  ERROR 209: undefined object 17140O at line 196 of [CONDUIT] section:
  17140P           17140O           6001             50.00      0.0130     89.36      89.31      0          0

  
  ERROR 209: undefined object 17141O at line 197 of [CONDUIT] section:
  17141P           17141O           6002             330.00     0.0130     89.31      88.98      0          0

  
  ERROR 209: undefined object 17149O at line 198 of [CONDUIT] section:
  17149P           17149O           6010             269.00     0.0130     87.45      87.32      0          0

  
  ERROR 209: undefined object 17148O at line 199 of [CONDUIT] section:
  17148P           17148O           6009             66.00      0.0130     87.48      87.45      0          0

  
  ERROR 209: undefined object 19368O at line 200 of [CONDUIT] section:
  19368P           19368O           4777             250.00     0.0130     87.32      87.20      0          0

  
  ERROR 209: undefined object 17102O at line 201 of [CONDUIT] section:
  17102P           17102O           5967             270.00     0.0130     87.79      87.13      0          0

  
  ERROR 209: undefined object 19369O at line 202 of [CONDUIT] section:
  19369P           19369O           5967             217.00     0.0130     87.20      87.13      0          0

  
  ERROR 209: undefined object 17108O at line 203 of [CONDUIT] section:
  17108P           17108O           5969             60.00      0.0130     87.13      86.65      0          0

  
  ERROR 209: undefined object 17120O at line 204 of [CONDUIT] section:
  17120P           17120O           5983             26.55      0.0130     95.14      89.83      0          0

  
  ERROR 209: undefined object 17121O at line 205 of [CONDUIT] section:
  17121P           17121O           5984             25.00      0.0130     89.83      89.83      0          0

  
  ERROR 209: undefined object 17122O at line 206 of [CONDUIT] section:
  17122P           17122O           5985             25.35      0.0130     89.83      94.90      0          0

  
  ERROR 209: undefined object 17123O at line 207 of [CONDUIT] section:
  17123P           17123O           5979             32.00      0.0130     94.90      94.81      0          0

  
  ERROR 209: undefined object 17106O at line 208 of [CONDUIT] section:
  17106P           17106O           5967             397.00     0.0130     88.26      87.13      0          0

  
  ERROR 209: undefined object 17126O at line 209 of [CONDUIT] section:
  17126P           17126O           5981             25.00      0.0130     92.97      91.40      0          0

  
  ERROR 209: undefined object 17127O at line 210 of [CONDUIT] section:
  17127P           17127O           5988             130.00     0.0130     91.40      93.00      0          0

  
  ERROR 209: undefined object 17128O at line 211 of [CONDUIT] section:
  17128P           17128O           5989             45.00      0.0130     93.00      98.42      0          0

  
  ERROR 209: undefined object 17129O at line 212 of [CONDUIT] section:
  17129P           17129O           5990             35.00      0.0130     98.42      105.70     0          0

  
  ERROR 209: undefined object 17130O at line 213 of [CONDUIT] section:
  17130P           17130O           5991             20.00      0.0130     105.70     106.00     0          0

  
  ERROR 209: undefined object 17131O at line 214 of [CONDUIT] section:
  17131P           17131O           5992             35.00      0.0130     106.00     101.00     0          0

  
  ERROR 209: undefined object 17147O at line 215 of [CONDUIT] section:
  17147P           17147O           6008             386.00     0.0130     87.67      87.48      0          0

  
  ERROR 209: undefined object 17146O at line 216 of [CONDUIT] section:
  17146P           17146O           6007             70.00      0.0130     87.71      87.67      0          0

  
  ERROR 209: undefined object 17145O at line 217 of [CONDUIT] section:
  17145P           17145O           6006             67.00      0.0130     87.74      87.71      0          0

  
  ERROR 209: undefined object 17087O at line 218 of [CONDUIT] section:
  17087P           17087O           5948             63.00      0.0130     91.95      91.80      0          0

  
  ERROR 209: undefined object 18174O at line 219 of [CONDUIT] section:
  18174P           18174O           5997             280.00     0.0130     90.10      89.82      0          0

  
  ERROR 209: undefined object 18172O at line 220 of [CONDUIT] section:
  18172P           18172O           6437             65.00      0.0130     90.17      90.10      0          0

  
  ERROR 209: undefined object 405O at line 221 of [CONDUIT] section:
  405P             405O             ?                263.00     0.0130     91.02      90.76      0          0

  
  ERROR 209: undefined object 406O at line 222 of [CONDUIT] section:
  406P             406O             ?                152.00     0.0130     91.28      91.13      0          0

  
  ERROR 209: undefined object 407O at line 223 of [CONDUIT] section:
  407P             407O             ?                110.00     0.0130     91.13      91.02      0          0

  
  ERROR 209: undefined object 408O at line 224 of [CONDUIT] section:
  408P             408O             ?                137.00     0.0130     90.76      90.62      0          0

  
  ERROR 209: undefined object 409O at line 225 of [CONDUIT] section:
  409P             409O             ?                375.00     0.0130     90.62      90.24      0          0

  
  ERROR 209: undefined object 410O at line 226 of [CONDUIT] section:
  410P             410O             ?                330.00     0.0130     90.24      89.93      0          0

  
  ERROR 209: undefined object 411O at line 227 of [CONDUIT] section:
  411P             411O             ?                280.00     0.0130     89.93      89.65      0          0

  
  ERROR 209: undefined object 412O at line 228 of [CONDUIT] section:
  412P             412O             ?                160.00     0.0130     89.65      89.49      0          0

  
  ERROR 209: undefined object 413O at line 229 of [CONDUIT] section:
  413P             413O             ?                160.00     0.0130     89.49      89.33      0          0

  
  ERROR 209: undefined object 414O at line 230 of [CONDUIT] section:
  414P             414O             ?                178.00     0.0130     89.33      89.15      0          0

  
  ERROR 209: undefined object 415O at line 231 of [CONDUIT] section:
  415p             415O             ?                147.00     0.0130     88.91      88.76      0          0

  
  ERROR 209: undefined object 416O at line 232 of [CONDUIT] section:
  416P             416O             ?                180.00     0.0130     88.76      88.22      0          0

  
  ERROR 209: undefined object 417O at line 233 of [CONDUIT] section:
  417P             417O             ?                160.00     0.0130     88.22      87.74      0          0

  
  ERROR 209: undefined object 418O at line 234 of [CONDUIT] section:
  418P             418O             ?                100.00     0.0130     88.79      88.59      0          0

  
  ERROR 209: undefined object 419O at line 235 of [CONDUIT] section:
  419P             419O             ?                95.00      0.0130     88.98      88.79      0          0

  
  ERROR 209: undefined object 431O at line 236 of [CONDUIT] section:
  431P             431O             ?                385.00     0.0130     93.98      93.21      0          0

  
  ERROR 209: undefined object 433O at line 237 of [CONDUIT] section:
  433P             433O             ?                344.00     0.0130     94.32      93.98      0          0

  
  Maximum error count exceeded.

  Analysis begun on:  Sat Mar  7 21:51:22 2026
  Analysis ended on:  Sat Mar  7 21:51:22 2026
  Total elapsed time: < 1 sec