
  EPA STORM WATER MANAGEMENT MODEL - VERSION 5.2 (Build 5.2.4)
  ------------------------------------------------------------

  
  ERROR 209: undefined object 4 at line 39 of [ORIFICE] section:
  ORIFICE 4        A                Outlet           SIDE       2.00       0.650      NO       0

  
  ERROR 205: invalid keyword 4 at line 45 of [XSECT] section:
  ORIFICE 4        RECT_CLOSED  0.50       0          0          0          


  Analysis begun on:  Sat Mar  7 21:51:23 2026
  Analysis ended on:  Sat Mar  7 21:51:23 2026
  Total elapsed time: < 1 sec