
  EPA STORM WATER MANAGEMENT MODEL - VERSION 5.2 (Build 5.2.4)
  ------------------------------------------------------------

  
  ERROR 209: undefined object Node_7380 at line 100 of [CONDUIT] section:
  JSCSB07380       Node_7380        Node_10401041    41.09      0.0140     103.67     102.78     0          0

  
  ERROR 209: undefined object Node_738007360 at line 101 of [CONDUIT] section:
  0738007360       Node_738007360   Node_10411043    419.53     0          102.78     101.10     0          0

  
  ERROR 209: undefined object Node_730007360 at line 102 of [CONDUIT] section:
  0730007360       Node_730007360   Node_10431045    135.58     0          101.10     100.96     0          0

  
  ERROR 209: undefined object Node_730007280 at line 103 of [CONDUIT] section:
  0730007280       Node_730007280   Node_10451047    164.20     0          101.21     101.04     0          0

  
  ERROR 209: undefined object Node_728007220 at line 104 of [CONDUIT] section:
  0728007220       Node_728007220   Node_10471049    355.49     0          101.26     100.22     0          0

  
  ERROR 209: undefined object Node_722007200 at line 105 of [CONDUIT] section:
  0722007200       Node_722007200   Node_10491051    401.28     0          100.22     99.81      0          0

  
  ERROR 209: undefined object Node_7200 at line 106 of [CONDUIT] section:
  07200MBNRA       Node_7200        Node_10511053    256.81     0          101.27     101.01     0          0

  
  ERROR 209: undefined object 44"ACMP at line 107 of [CONDUIT] section:
  24"RCSP          44"ACMP          ovrflw           35.90      0.0140     101.26     100.15     0          0

  
  ERROR 209: undefined object Node_716007140 at line 108 of [CONDUIT] section:
  0716007140       Node_716007140   Node_10551057    506.24     0          101.49     99.58      0          0

  
  ERROR 209: undefined object Node_714007120 at line 109 of [CONDUIT] section:
  0714007120       Node_714007120   Node_10571059    71.19      0          99.58      99.32      0          0

  
  ERROR 209: undefined object Node_712007100 at line 110 of [CONDUIT] section:
  0712007100       Node_712007100   Node_10591061    143.71     0          99.32      99.16      0          0

  
  ERROR 209: undefined object Node_710007080 at line 111 of [CONDUIT] section:
  0710007080       Node_710007080   Node_10611063    206.14     0          99.16      98.94      0          0

  
  ERROR 209: undefined object Node_708007060 at line 112 of [CONDUIT] section:
  0708007060       Node_708007060   Node_10631065    238.37     0          98.94      98.70      0          0

  
  ERROR 209: undefined object Node_706007040 at line 113 of [CONDUIT] section:
  0706007040       Node_706007040   Node_10651067    282.12     0          98.70      98.00      0          0

  
  ERROR 209: undefined object Node_704000 at line 114 of [CONDUIT] section:
  0704000CLR       Node_704000      Node_10671295    120.94     0          98.00      97.80      0          0

  
  ERROR 209: undefined object Node_698006960 at line 115 of [CONDUIT] section:
  0698006960       Node_698006960   Node_10701071    142.44     0          98.00      97.49      0          0

  
  ERROR 209: undefined object Node_696006940 at line 116 of [CONDUIT] section:
  0696006940       Node_696006940   Node_10711073    226.01     0          97.49      97.26      0          0

  
  ERROR 209: undefined object Node_694006920 at line 117 of [CONDUIT] section:
  0694006920       Node_694006920   Node_10731075    257.31     0          98.57      97.27      0          0

  
  ERROR 209: undefined object Node_690006880 at line 118 of [CONDUIT] section:
  0690006880       Node_690006880   Node_10771078    835.48     0          96.90      88.26      0          0

  
  ERROR 209: undefined object Node_688006860 at line 119 of [CONDUIT] section:
  0688006860       Node_688006860   Node_10781080    333.64     0          88.26      87.48      0          0

  
  ERROR 209: undefined object Node_6860 at line 120 of [CONDUIT] section:
  06860THALC       Node_6860        Node_10801082    301.07     0          87.48      85.03      0          0

  
  ERROR 209: undefined object 30" at line 121 of [CONDUIT] section:
  36"              30"              OVRDW            111.60     0.0140     97.27      96.90      0          0

  
  ERROR 209: undefined object Node_676006740 at line 122 of [CONDUIT] section:
  0676006740       Node_676006740   Node_10841086    210.98     0          85.63      85.42      0          0

  
  ERROR 209: undefined object Node_674006720 at line 123 of [CONDUIT] section:
  0674006720       Node_674006720   Node_10861088    161.06     0          85.42      81.92      0          0

  
  ERROR 209: undefined object Node_672006700 at line 124 of [CONDUIT] section:
  0672006700       Node_672006700   Node_10881090    191.47     0          81.92      79.23      0          0

  
  ERROR 209: undefined object Node_670006650 at line 125 of [CONDUIT] section:
  0670006650       Node_670006650   Node_10901092    308.96     0          79.23      74.23      0          0

  
  ERROR 209: undefined object Node_665006600 at line 126 of [CONDUIT] section:
  0665006600       Node_665006600   Node_10921094    162.61     0          74.23      71.40      0          0

  
  ERROR 209: undefined object Node_645006350 at line 127 of [CONDUIT] section:
  0645006350       Node_645006350   Node_10961097    153.14     0          70.34      68.91      0          0

  
  ERROR 209: undefined object N.Split at line 128 of [CONDUIT] section:
  S.Split          N.Split          Node_10941096    201.16     0          71.40      70.34      0          0

  
  ERROR 209: undefined object Node_635006300 at line 129 of [CONDUIT] section:
  0635006300       Node_635006300   Node_10971100    128.51     0          68.91      68.73      0          0

  
  ERROR 209: undefined object Node_630006250 at line 130 of [CONDUIT] section:
  0630006250       Node_630006250   Node_11001102    262.98     0          68.73      68.72      0          0

  
  ERROR 209: undefined object Node_625006200 at line 131 of [CONDUIT] section:
  0625006200       Node_625006200   Node_11021104    215.29     0          69.28      67.36      0          0

  
  ERROR 209: undefined object Node_620000 at line 132 of [CONDUIT] section:
  0620000CVW       Node_620000      Node_11041106    264.54     0          67.36      66.78      0          0

  
  ERROR 209: undefined object Node_6100 at line 133 of [CONDUIT] section:
  00CVW06100       Node_6100        Node_11061108    74.67      0.0140     67.34      65.47      0          0

  
  ERROR 209: undefined object Node_610006050 at line 134 of [CONDUIT] section:
  0610006050       Node_610006050   Node_11081110    238.69     0          65.47      63.78      0          0

  
  ERROR 209: undefined object Node_605006000 at line 135 of [CONDUIT] section:
  0605006000       Node_605006000   Node_11101112    245.56     0          63.78      62.45      0          0

  
  ERROR 209: undefined object Node_600005950 at line 136 of [CONDUIT] section:
  0600005950       Node_600005950   Node_11121114    113.94     0          62.45      62.28      0          0

  
  ERROR 209: undefined object Node_595005900 at line 137 of [CONDUIT] section:
  0595005900       Node_595005900   Node_11141116    85.66      0          62.28      61.90      0          0

  
  ERROR 209: undefined object Node_590005850 at line 138 of [CONDUIT] section:
  0590005850       Node_590005850   Node_11161118    100.98     0          61.90      61.89      0          0

  
  ERROR 209: undefined object Node_585005800 at line 139 of [CONDUIT] section:
  0585005800       Node_585005800   Node_11181120    61.68      0          62.50      61.55      0          0

  
  ERROR 209: undefined object Node_580005750 at line 140 of [CONDUIT] section:
  0580005750       Node_580005750   Node_11201122    86.29      0          61.55      60.50      0          0

  
  ERROR 209: undefined object Node_575005700 at line 141 of [CONDUIT] section:
  0575005700       Node_575005700   Node_11221124    209.99     0          60.50      59.94      0          0

  
  ERROR 209: undefined object Node_57000650 at line 142 of [CONDUIT] section:
  057000650        Node_57000650    Node_11241126    254.68     0          59.94      59.52      0          0

  
  ERROR 209: undefined object Node_565005625 at line 143 of [CONDUIT] section:
  0565005625       Node_565005625   Node_11261128    164.36     0          59.52      58.96      0          0

  
  ERROR 209: undefined object Node_550005450 at line 144 of [CONDUIT] section:
  0550005450       Node_550005450   Node_11301131    340.88     0          57.34      54.74      0          0

  
  ERROR 209: undefined object lfds at line 145 of [CONDUIT] section:
  rtds             lfds             Node_11281130    130.32     0          58.96      57.34      0          0

  
  ERROR 209: undefined object Node_7260 at line 146 of [CONDUIT] section:
  00KRC07260       Node_7260        Node_10281148    45.00      0.0140     232.50     230.00     0          0

  
  ERROR 209: undefined object Node_726007240 at line 147 of [CONDUIT] section:
  0726007240       Node_726007240   Node_11481150    1000.00    0.0350     230.00     130.00     0          0

  
  ERROR 209: undefined object Node_724007220 at line 148 of [CONDUIT] section:
  0724007220       Node_724007220   Node_11501049    250.00     0.0350     130.00     100.22     0          0

  
  ERROR 209: undefined object Node_7320 at line 149 of [CONDUIT] section:
  00SRL07320       Node_7320        Node_10271153    350.00     0.0240     152.60     130.00     0          0

  
  ERROR 209: undefined object Node_732007300 at line 150 of [CONDUIT] section:
  0732007300       Node_732007300   Node_11531045    150.00     0.0350     130.00     101.10     0          0

  
  ERROR 209: undefined object Node_7380 at line 151 of [CONDUIT] section:
  00WBR07380       Node_7380        Node_10261041    550.00     0.0140     128.50     102.78     0          0

  
  ERROR 209: undefined object Node_7480 at line 152 of [CONDUIT] section:
  00RTR07480       Node_7480        Node_10291158    100.00     0.0140     104.50     103.11     0          0

  
  ERROR 209: undefined object Node_6780 at line 153 of [CONDUIT] section:
  00HLR06780       Node_6780        Node_10311160    2024.00    0.0140     293.00     106.27     0          0

  
  ERROR 209: undefined object Node_678006760 at line 154 of [CONDUIT] section:
  0678006760       Node_678006760   Node_11601084    570.00     0.0140     106.23     84.65      0          0

  
  ERROR 209: undefined object Node_6780 at line 155 of [CONDUIT] section:
  00OKR06780       Node_6780        Node_10301160    90.00      0.0140     112.18     107.11     0          0

  
  ERROR 209: undefined object Node_6500 at line 156 of [CONDUIT] section:
  00AHL06500       Node_6500        Node_10321164    75.00      0.0140     85.00      84.00      0          0

  
  ERROR 209: undefined object Node_650006450 at line 157 of [CONDUIT] section:
  0650006450       Node_650006450   Node_11641096    320.00     0.0350     84.00      70.34      0          0

  
  ERROR 209: undefined object Node_6350 at line 158 of [CONDUIT] section:
  00LWD06350       Node_6350        Node_10341097    371.00     0.0350     120.00     68.91      0          0

  
  ERROR 209: undefined object Node_5550 at line 159 of [CONDUIT] section:
  VTACD05550       Node_5550        Node_10331168    60.00      0.0140     87.70      86.00      0          0

  
  ERROR 209: undefined object Node_555005500 at line 160 of [CONDUIT] section:
  0555005500       Node_555005500   Node_11681130    220.00     0.0140     86.00      57.34      0          0

  
  ERROR 209: undefined object ? at line 161 of [CONDUIT] section:
  00WBLJSCSB       ?                Node_11711040    530.00     0.0140     112.00     103.07     0          0

  
  ERROR 209: undefined object Node_748007460 at line 162 of [CONDUIT] section:
  0748007460       Node_748007460   Node_11581157    586.24     0          103.11     102.52     0          0

  
  ERROR 209: undefined object Node_7460 at line 163 of [CONDUIT] section:
  07460JSBSC       Node_7460        Node_11571040    374.70     0          103.45     103.07     0          0

  
  ERROR 209: undefined object ovrclk at line 164 of [CONDUIT] section:
  clack            ovrclk           Node_12951070    71.06      0.0140     97.80      97.72      0          0

  
  ERROR 209: undefined object Node_972 at line 165 of [CONDUIT] section:
  972              Node_972         Node_12991158    100.00     0.0150     103.50     103.11     0          0

  
  ERROR 209: undefined object Node_6980 at line 166 of [CONDUIT] section:
  00ECR06980       Node_6980        Node_13011070    1200.00    0.0140     112.70     97.72      0          0

  
  ERROR 209: undefined object ovrthsn at line 167 of [CONDUIT] section:
  thsn             ovrthsn          Node_10821084    63.08      0.0150     85.03      84.65      0          0

  
  ERROR 209: undefined object 0 at line 173 of [XSECT] section:
  0738007360       IRREGULAR    0          0          0          0          1

  
  ERROR 209: undefined object 0 at line 174 of [XSECT] section:
  0730007360       IRREGULAR    0          0          0          0          1

  
  ERROR 209: undefined object 0 at line 175 of [XSECT] section:
  0730007280       IRREGULAR    0          0          0          0          1

  
  ERROR 209: undefined object 0 at line 176 of [XSECT] section:
  0728007220       IRREGULAR    0          0          0          0          1

  
  ERROR 209: undefined object 0 at line 177 of [XSECT] section:
  0722007200       IRREGULAR    0          0          0          0          1

  
  ERROR 209: undefined object 0 at line 178 of [XSECT] section:
  07200MBNRA       IRREGULAR    0          0          0          0          1

  
  ERROR 209: undefined object 0 at line 180 of [XSECT] section:
  0716007140       IRREGULAR    0          0          0          0          1

  
  ERROR 209: undefined object 0 at line 181 of [XSECT] section:
  0714007120       IRREGULAR    0          0          0          0          1

  
  ERROR 209: undefined object 0 at line 182 of [XSECT] section:
  0712007100       IRREGULAR    0          0          0          0          1

  
  ERROR 209: undefined object 0 at line 183 of [XSECT] section:
  0710007080       IRREGULAR    0          0          0          0          1

  
  ERROR 209: undefined object 0 at line 184 of [XSECT] section:
  0708007060       IRREGULAR    0          0          0          0          1

  
  ERROR 209: undefined object 0 at line 185 of [XSECT] section:
  0706007040       IRREGULAR    0          0          0          0          1

  
  ERROR 209: undefined object 0 at line 186 of [XSECT] section:
  0704000CLR       IRREGULAR    0          0          0          0          1

  
  ERROR 209: undefined object 0 at line 187 of [XSECT] section:
  0698006960       IRREGULAR    0          0          0          0          1

  
  ERROR 209: undefined object 0 at line 188 of [XSECT] section:
  0696006940       IRREGULAR    0          0          0          0          1

  
  ERROR 209: undefined object 0 at line 189 of [XSECT] section:
  0694006920       IRREGULAR    0          0          0          0          1

  
  ERROR 209: undefined object 0 at line 190 of [XSECT] section:
  0690006880       IRREGULAR    0          0          0          0          1

  
  ERROR 209: undefined object 0 at line 191 of [XSECT] section:
  0688006860       IRREGULAR    0          0          0          0          1

  
  ERROR 209: undefined object 0 at line 192 of [XSECT] section:
  06860THALC       IRREGULAR    0          0          0          0          1

  
  ERROR 209: undefined object 0 at line 194 of [XSECT] section:
  0676006740       IRREGULAR    0          0          0          0          1

  
  ERROR 209: undefined object 0 at line 195 of [XSECT] section:
  0674006720       IRREGULAR    0          0          0          0          1

  
  ERROR 209: undefined object 0 at line 196 of [XSECT] section:
  0672006700       IRREGULAR    0          0          0          0          1

  
  ERROR 209: undefined object 0 at line 197 of [XSECT] section:
  0670006650       IRREGULAR    0          0          0          0          1

  
  ERROR 209: undefined object 0 at line 198 of [XSECT] section:
  0665006600       IRREGULAR    0          0          0          0          1

  
  ERROR 209: undefined object 0 at line 199 of [XSECT] section:
  0645006350       IRREGULAR    0          0          0          0          1

  
  ERROR 209: undefined object 0 at line 200 of [XSECT] section:
  S.Split          IRREGULAR    0          0          0          0          1

  
  ERROR 209: undefined object 0 at line 201 of [XSECT] section:
  0635006300       IRREGULAR    0          0          0          0          1

  
  ERROR 209: undefined object 0 at line 202 of [XSECT] section:
  0630006250       IRREGULAR    0          0          0          0          1

  
  ERROR 209: undefined object 0 at line 203 of [XSECT] section:
  0625006200       IRREGULAR    0          0          0          0          1

  
  ERROR 209: undefined object 0 at line 204 of [XSECT] section:
  0620000CVW       IRREGULAR    0          0          0          0          1

  
  ERROR 209: undefined object 0 at line 206 of [XSECT] section:
  0610006050       IRREGULAR    0          0          0          0          1

  
  ERROR 209: undefined object 0 at line 207 of [XSECT] section:
  0605006000       IRREGULAR    0          0          0          0          1

  
  Maximum error count exceeded.

  Analysis begun on:  Sat Mar  7 21:51:33 2026
  Analysis ended on:  Sat Mar  7 21:51:33 2026
  Total elapsed time: < 1 sec