
  EPA STORM WATER MANAGEMENT MODEL - VERSION 5.2 (Build 5.2.4)
  ------------------------------------------------------------

  
  ERROR 209: undefined object CA36.2 at line 115 of [CONDUIT] section:
  CA36.1           CA36.2           NA37             30.00      0.0130     156.42     156.33     0          0

  
  ERROR 209: undefined object 10.60 at line 185 of [XSECT] section:
  84               IRREGULAR    10.60      0          0          0          1


  Analysis begun on:  Sat Mar  7 21:51:29 2026
  Analysis ended on:  Sat Mar  7 21:51:29 2026
  Total elapsed time: < 1 sec