
  EPA STORM WATER MANAGEMENT MODEL - VERSION 5.2 (Build 5.2.4)
  ------------------------------------------------------------

  
  ERROR 211: invalid number  at line 132 of [XSECT] section:
  94               CIRCULAR     0          0          0          0          1

  
  ERROR 211: invalid number  at line 135 of [XSECT] section:
  rcp30            RECT_OPEN    0          4.00       0          0          

  
  ERROR 211: invalid number  at line 136 of [XSECT] section:
  rcp28            RECT_OPEN    0          6.00       0          0          


  Analysis begun on:  Sat Mar  7 21:51:26 2026
  Analysis ended on:  Sat Mar  7 21:51:26 2026
  Total elapsed time: < 1 sec