
  EPA STORM WATER MANAGEMENT MODEL - VERSION 5.2 (Build 5.2.4)
  ------------------------------------------------------------

  
  ERROR 209: undefined object wknb090a.s at line 77 of [CONDUIT] section:
  wknb090a.p       wknb090a.s       61140            1037.00    0.0150     414.56     413.70     0          0

  
  ERROR 209: undefined object wknb100c.s at line 78 of [CONDUIT] section:
  wknb100c.p       wknb100c.s       59462            30.00      0.0190     412.51     412.27     0          0

  
  ERROR 209: undefined object wknb100b.s at line 79 of [CONDUIT] section:
  wknb100b.p       wknb100b.s       66880            47.00      0.0170     411.37     410.80     0          0

  
  ERROR 209: undefined object wknb100a.s at line 80 of [CONDUIT] section:
  wknb100a.p       wknb100a.s       67043            130.00     0.0260     410.80     410.54     0          0

  
  ERROR 209: undefined object wknb100d.s at line 81 of [CONDUIT] section:
  wknb100d.p       wknb100d.s       59421            905.00     0.0160     413.76     412.51     0          0

  
  ERROR 209: undefined object wknb180b.s at line 82 of [CONDUIT] section:
  wknb180b.c       wknb180b.s       61183            480.00     0.0140     419.60     418.10     0          0

  
  ERROR 209: undefined object wknb180a.s at line 83 of [CONDUIT] section:
  wknb180a.c       wknb180a.s       61199            1214.00    0.0150     418.10     416.40     0          0

  
  ERROR 209: undefined object wknb160a.s at line 84 of [CONDUIT] section:
  wknb160a.p       wknb160a.s       99575            1201.00    0.0240     415.40     414.28     0          0

  
  ERROR 209: undefined object wk120b.s at line 85 of [CONDUIT] section:
  wknb120b.c       wk120b.s         60890            1458.00    0.0240     414.28     413.50     0          0

  
  ERROR 209: undefined object wknb120a.s at line 86 of [CONDUIT] section:
  wknb120a.p       wknb120a.s       61133            130.00     0.0140     413.50     412.98     0          0

  
  ERROR 209: undefined object wknb110c.s at line 87 of [CONDUIT] section:
  wknb110c.p       wknb110c.s       59420            1337.00    0.0150     412.98     411.19     0          0

  
  ERROR 209: undefined object wknb110b.s at line 88 of [CONDUIT] section:
  wknb110b.p       wknb110b.s       59476            110.00     0.0140     411.35     411.20     0          0

  
  ERROR 209: undefined object wknb110a.s at line 89 of [CONDUIT] section:
  wknb110a.p       wknb110a.s       59385            120.00     0.0140     411.20     409.90     0          0

  
  ERROR 209: undefined object wknb070a.s at line 90 of [CONDUIT] section:
  wknb070a.p       wknb070a.s       59401            880.00     0.0160     411.70     410.63     0          0

  
  ERROR 209: undefined object wknb200a.s at line 91 of [CONDUIT] section:
  wknb200a.p       wknb200a.s       62712            262.00     0.0140     422.82     422.43     0          0

  
  ERROR 209: undefined object wknb190h.2 at line 92 of [CONDUIT] section:
  wknb190h.1       wknb190h.2       wknb190h.s       1.00       0.0140     0          0          0          0

  
  ERROR 209: undefined object wknb190F.2 at line 94 of [CONDUIT] section:
  wknb190F.1       wknb190F.2       wknb190F.3       75.00      0.0300     421.57     421.45     0          0

  
  ERROR 209: undefined object WKNB190D.2 at line 96 of [CONDUIT] section:
  WKNB190D.1       WKNB190D.2       wkNB190D.s       42.00      0.0380     420.85     420.66     0          0

  
  ERROR 209: undefined object wknb190a.s at line 99 of [CONDUIT] section:
  wknb190a.c       wknb190a.s       61085            68.00      0.0290     418.42     418.34     0          0

  
  ERROR 209: undefined object wk280d-fl at line 101 of [CONDUIT] section:
  wkNB280d         wk280d-fl        71108            620.00     0          418.17     418.31     0          0

  
  ERROR 209: undefined object wknb150b.s at line 103 of [CONDUIT] section:
  wknb150b.c       wknb150b.s       66590            532.00     0.0160     418.50     413.90     0          0

  
  ERROR 209: undefined object wknb150a.s at line 104 of [CONDUIT] section:
  wknb150a.c       wknb150a.s       66212            591.00     0.0140     413.90     413.20     0          0

  
  ERROR 209: undefined object wknb140a.s at line 105 of [CONDUIT] section:
  wknb140a.c       wknb140a.s       61213            701.00     0.0140     413.20     412.50     0          0

  
  ERROR 209: undefined object wk250h.st at line 106 of [CONDUIT] section:
  wk250h.clv       wk250h.st        59519            2545.00    0.0140     412.40     407.70     0          0

  
  ERROR 209: undefined object wknb060b.s at line 107 of [CONDUIT] section:
  wknb060b.c       wknb060b.s       67893            1043.00    0.0150     407.70     407.60     0          0

  
  ERROR 209: undefined object wknb060a.s at line 108 of [CONDUIT] section:
  wknb060a.c       wknb060a.s       59426            340.00     0.0170     407.60     407.10     0          0

  
  ERROR 209: undefined object wknb050d.s at line 109 of [CONDUIT] section:
  wknb050d.c       wknb050d.s       59495            34.00      0.0160     413.55     413.45     0          0

  
  ERROR 209: undefined object wknb050c.s at line 110 of [CONDUIT] section:
  wknb050c.c       wknb050c.s       59546            656.00     0.0140     413.49     412.60     0          0

  
  ERROR 209: undefined object wknb050g.s at line 111 of [CONDUIT] section:
  wknb050g.c       wknb050g.s       68227            169.00     0.0180     418.50     415.20     0          0

  
  ERROR 209: undefined object wknb050f.s at line 112 of [CONDUIT] section:
  wknb050f.c       wknb050f.s       67912            920.00     0.0140     415.20     414.00     0          0

  
  ERROR 209: undefined object wknb050e.s at line 113 of [CONDUIT] section:
  wknb050e.c       wknb050e.s       59545            148.00     0.0140     414.00     413.55     0          0

  
  ERROR 209: undefined object wknb050b.s at line 114 of [CONDUIT] section:
  wknb050b.c       wknb050b.s       59518            436.00     0.0150     412.23     410.90     0          0

  
  ERROR 209: undefined object wknb050a.s at line 115 of [CONDUIT] section:
  wknb050a.c       wknb050a.s       59519            105.00     0.0180     410.90     408.00     0          0

  
  ERROR 209: undefined object WKNB030C.2 at line 116 of [CONDUIT] section:
  WKNB030C.1       WKNB030C.2       wknb030c.s       603.00     0.0190     407.10     406.00     0          0

  
  ERROR 209: undefined object 0 at line 144 of [XSECT] section:
  WKNB190G         IRREGULAR    0          0          0          0          1

  
  ERROR 209: undefined object 0 at line 146 of [XSECT] section:
  WKNB190E         IRREGULAR    0          0          0          0          1

  
  ERROR 209: undefined object 0 at line 148 of [XSECT] section:
  WKNB190C         IRREGULAR    0          0          0          0          1

  
  ERROR 209: undefined object 0 at line 149 of [XSECT] section:
  WKNB190B         IRREGULAR    0          0          0          0          1

  
  ERROR 209: undefined object 0 at line 151 of [XSECT] section:
  WKNB280E         IRREGULAR    0          0          0          0          1

  
  ERROR 209: undefined object 0 at line 152 of [XSECT] section:
  wkNB280d         IRREGULAR    0          0          0          0          1

  
  ERROR 209: undefined object 0 at line 153 of [XSECT] section:
  WKNB280C         IRREGULAR    0          0          0          0          1

  
  ERROR 209: undefined object 0 at line 168 of [XSECT] section:
  WKNB030B         IRREGULAR    0          0          0          0          1

  
  ERROR 209: undefined object 0 at line 169 of [XSECT] section:
  WKNB060D         IRREGULAR    0          0          0          0          1

  
  ERROR 209: undefined object 0 at line 170 of [XSECT] section:
  WKNB060C         IRREGULAR    0          0          0          0          1

  
  ERROR 209: undefined object 0 at line 171 of [XSECT] section:
  WKNB100F         IRREGULAR    0          0          0          0          1

  
  ERROR 209: undefined object 0 at line 172 of [XSECT] section:
  WKNB100E         IRREGULAR    0          0          0          0          1

  
  ERROR 209: undefined object 0 at line 173 of [XSECT] section:
  WKNB110D         IRREGULAR    0          0          0          0          1

  
  ERROR 209: undefined object 0 at line 174 of [XSECT] section:
  WKNB060E         IRREGULAR    0          0          0          0          1


  Analysis begun on:  Sat Mar  7 21:51:33 2026
  Analysis ended on:  Sat Mar  7 21:51:33 2026
  Total elapsed time: < 1 sec