
  EPA STORM WATER MANAGEMENT MODEL - VERSION 5.2 (Build 5.2.4)
  ------------------------------------------------------------

  
  ERROR 209: undefined object 532 at line 75 of [CONDUIT] section:
  532T             532              5320             1605.00    0.0150     0          0          0          0

  
  ERROR 209: undefined object 523 at line 87 of [CONDUIT] section:
  523T             523              5230             295.00     0.0150     0          0          0          0

  
  ERROR 209: undefined object 310aT at line 104 of [CONDUIT] section:
  310a             310aT            3100a            200.00     0.0240     1229.50    1229.10    0          0


  Analysis begun on:  Sat Mar  7 21:51:27 2026
  Analysis ended on:  Sat Mar  7 21:51:27 2026
  Total elapsed time: < 1 sec