
  EPA STORM WATER MANAGEMENT MODEL - VERSION 5.2 (Build 5.2.4)
  ------------------------------------------------------------

  
  ERROR 207: duplicate ID name basin at line 45 of [STORAGE] section:
  basin            7.50       0          13.20      FUNCTIONAL 0 0          0

  
  ERROR 207: duplicate ID name basin at line 46 of [STORAGE] section:
  basin            7.50       0          22.40      FUNCTIONAL 0 0          0

  
  ERROR 207: duplicate ID name basin at line 47 of [STORAGE] section:
  basin            7.50       0          18.20      FUNCTIONAL 0 0          0

  
  ERROR 207: duplicate ID name basin at line 48 of [STORAGE] section:
  basin            8.10       0          10.60      FUNCTIONAL 0 0          0

  
  ERROR 207: duplicate ID name basin at line 49 of [STORAGE] section:
  basin            7.00       0          10.60      FUNCTIONAL 0 0          0

  
  ERROR 207: duplicate ID name basin at line 50 of [STORAGE] section:
  basin            7.00       0          9.10       FUNCTIONAL 0 0          0


  Analysis begun on:  Sat Mar  7 21:51:30 2026
  Analysis ended on:  Sat Mar  7 21:51:30 2026
  Total elapsed time: < 1 sec