
  EPA STORM WATER MANAGEMENT MODEL - VERSION 5.2 (Build 5.2.4)
  ------------------------------------------------------------

  
  ERROR 209: undefined object ? at line 38 of [CONDUIT] section:
  203              ?                ?                200.00     0.0140     2.00       1.00       0          0

  
  ERROR 209: undefined object ? at line 39 of [CONDUIT] section:
  205              ?                ?                200.00     0.0140     1.00       0          0          0

  
  ERROR 209: undefined object ? at line 44 of [WEIR] section:
  WEIR1            ?                ?                TRANSVERSE 160.00     1.840      NO       0        0          YES

  
  ERROR 211: invalid number  at line 51 of [XSECT] section:
  WEIR1            RECT_OPEN    0          10.00      0          0          


  Analysis begun on:  Sat Mar  7 21:51:23 2026
  Analysis ended on:  Sat Mar  7 21:51:23 2026
  Total elapsed time: < 1 sec