
  EPA STORM WATER MANAGEMENT MODEL - VERSION 5.2 (Build 5.2.4)
  ------------------------------------------------------------

  
  ERROR 209: undefined object 5.00 at line 36 of [XSECT] section:
  User1            CUSTOM       5.00       5.00       0          0          1

  
  ERROR 209: undefined object 5.00 at line 37 of [XSECT] section:
  User2            CUSTOM       5.00       5.00       0          0          1


  Analysis begun on:  Sat Mar  7 21:51:32 2026
  Analysis ended on:  Sat Mar  7 21:51:32 2026
  Total elapsed time: < 1 sec