
  EPA STORM WATER MANAGEMENT MODEL - VERSION 5.2 (Build 5.2.4)
  ------------------------------------------------------------

  
  ERROR 211: invalid number  at line 163 of [XSECT] section:
  vortex           RECT_CLOSED  0.40       0          0          0          

  
  ERROR 211: invalid number  at line 164 of [XSECT] section:
  WEIR             RECT_OPEN    0          2.35       0          0          


  Analysis begun on:  Sat Mar  7 21:51:33 2026
  Analysis ended on:  Sat Mar  7 21:51:33 2026
  Total elapsed time: < 1 sec