
  EPA STORM WATER MANAGEMENT MODEL - VERSION 5.2 (Build 5.2.4)
  ------------------------------------------------------------

  
  ERROR 207: duplicate ID name sediment at line 37 of [JUNC] section:
  sediment         13.39      0          0          0          0

  
  ERROR 207: duplicate ID name O/W at line 38 of [JUNC] section:
  O/W              13.59      0          0          0          0


  Analysis begun on:  Sat Mar  7 21:51:29 2026
  Analysis ended on:  Sat Mar  7 21:51:29 2026
  Total elapsed time: < 1 sec