
  EPA STORM WATER MANAGEMENT MODEL - VERSION 5.2 (Build 5.2.4)
  ------------------------------------------------------------

  
  ERROR 207: duplicate ID name 0 at line 28 of [STORAGE] section:
  0                10.50      0          0          FUNCTIONAL 10.00 0          0

  
  ERROR 207: duplicate ID name 0 at line 29 of [STORAGE] section:
  0                10.00      0          0          FUNCTIONAL 10.00 0          0

  
  ERROR 207: duplicate ID name 0 at line 30 of [STORAGE] section:
  0                10.50      0          0          FUNCTIONAL 10.00 0          0

  
  ERROR 207: duplicate ID name 0 at line 31 of [STORAGE] section:
  0                10.72      0          0          FUNCTIONAL 10.00 0          0


  Analysis begun on:  Sat Mar  7 21:51:29 2026
  Analysis ended on:  Sat Mar  7 21:51:29 2026
  Total elapsed time: < 1 sec