
  EPA STORM WATER MANAGEMENT MODEL - VERSION 5.2 (Build 5.2.4)
  ------------------------------------------------------------

  
  ERROR 209: undefined object 75851o at line 126 of [CONDUIT] section:
  75851            75851o           75806            68.00      0.0240     661.80     659.80     0          0

  
  ERROR 209: undefined object 75859o at line 127 of [CONDUIT] section:
  75859            75859o           75814            42.00      0.0241     657.70     657.20     0          0

  
  ERROR 209: undefined object 73891o at line 128 of [CONDUIT] section:
  73891            73891o           73838            41.00      0.0140     655.70     654.80     0          0

  
  ERROR 209: undefined object 73887/9o at line 129 of [CONDUIT] section:
  73887/9          73887/9o         73834            42.00      0.0140     654.80     654.60     0          0

  
  ERROR 209: undefined object 73885o at line 130 of [CONDUIT] section:
  73885            73885o           73832            73.00      0.0140     654.60     654.30     0          0

  
  ERROR 209: undefined object 60094o at line 131 of [CONDUIT] section:
  60094            60094o           75798            158.00     0.0110     676.60     672.00     0          0

  
  ERROR 209: undefined object 75875o at line 133 of [CONDUIT] section:
  75875            75875o           75828            45.00      0.0140     664.70     663.10     0          0

  
  ERROR 209: undefined object 75871O at line 134 of [CONDUIT] section:
  75871            75871O           75822            103.00     0.0130     663.10     659.20     0          0

  
  ERROR 209: undefined object 73883o at line 135 of [CONDUIT] section:
  73883            73883o           73126            88.00      0.0140     654.30     651.60     0          0

  
  ERROR 209: undefined object 60092o at line 136 of [CONDUIT] section:
  60092            60092o           73830            110.00     0.0240     651.60     651.00     0          0

  
  ERROR 209: undefined object 75865/7o at line 137 of [CONDUIT] section:
  75865/7          75865/7o         73838            76.00      0.0140     659.20     657.40     0          0

  
  ERROR 209: undefined object 75847/45o at line 139 of [CONDUIT] section:
  75847/45         75847/45o        75802            101.00     0.0250     672.00     670.90     0          0

  
  ERROR 209: undefined object 73879o at line 140 of [CONDUIT] section:
  73879            73879o           73826            152.00     0.0140     649.10     648.50     0          0

  
  ERROR 209: undefined object 73877 at line 141 of [CONDUIT] section:
  73875            73877            73875/7o         57.00      0.0117     648.50     648.10     0          0

  
  ERROR 209: undefined object 73869/71o at line 143 of [CONDUIT] section:
  73869/71         73869/71o        73818            202.00     0.0140     643.60     641.00     0          0

  
  ERROR 209: undefined object 73865o at line 145 of [CONDUIT] section:
  73865            73865o           73814            40.00      0.0140     632.20     631.10     0          0

  
  ERROR 209: undefined object 73685o at line 149 of [CONDUIT] section:
  73685            73685o           73844            132.00     0.0140     627.40     626.60     0          0

  
  ERROR 209: undefined object 0.739o at line 159 of [CONDUIT] section:
  0.739            0.739o           0.727            67.00      0.0240     605.20     605.00     0          0

  
  ERROR 209: undefined object 75853/7O at line 161 of [CONDUIT] section:
  75853/7          75853/7O         75812            120.00     0.0140     659.80     657.70     0          0

  
  ERROR 209: undefined object 75861o at line 162 of [CONDUIT] section:
  75861            75861o           75816            40.00      0.0140     657.20     657.00     0          0

  
  ERROR 209: undefined object 73269O at line 169 of [CONDUIT] section:
  73269            73269O           73258            12.00      0.0140     637.90     637.70     0          0

  
  ERROR 209: undefined object 73285o at line 170 of [CONDUIT] section:
  73285            73285o           73036            50.00      0.0240     643.10     641.50     0          0

  
  ERROR 209: undefined object 73273/81o at line 171 of [CONDUIT] section:
  73273/81         73273/81o        73256            156.00     0.0140     641.50     638.50     0          0

  
  ERROR 209: undefined object 73279o at line 172 of [CONDUIT] section:
  73279            73279o           73260            140.00     0.0140     641.50     639.60     0          0

  
  ERROR 209: undefined object 73275o at line 173 of [CONDUIT] section:
  73275            73275o           73256            16.00      0.0140     639.60     638.20     0          0

  
  ERROR 209: undefined object 73289o at line 176 of [CONDUIT] section:
  73289            73289o           73262            72.00      0.0140     647.90     646.10     0          0

  
  ERROR 209: undefined object 73361o at line 178 of [CONDUIT] section:
  73361            73361o           73332            63.00      0.0140     644.10     642.40     0          0

  
  ERROR 209: undefined object 73373 at line 179 of [CONDUIT] section:
  73363            73373            73363/73o        89.00      0.0140     642.20     641.40     0          0

  
  ERROR 209: undefined object 73365o at line 180 of [CONDUIT] section:
  73365            73365o           73334            185.00     0.0140     641.40     640.50     0          0

  
  ERROR 209: undefined object 73367o at line 181 of [CONDUIT] section:
  73367            73367o           73330            35.00      0.0058     644.10     643.20     0          0

  
  ERROR 209: undefined object 73371o at line 182 of [CONDUIT] section:
  73371            73371o           73332            60.00      0.0140     643.20     642.20     0          0

  
  ERROR 209: undefined object 73375O at line 183 of [CONDUIT] section:
  73375            73375O           73334            172.00     0.0140     641.90     640.50     0          0

  
  ERROR 209: undefined object 73333/45o at line 184 of [CONDUIT] section:
  73333/45         73333/45o        73308            285.00     0.0140     643.90     641.90     0          0

  
  ERROR 209: undefined object 73331o at line 185 of [CONDUIT] section:
  73331            73331o           73294            215.00     0.0140     651.80     646.90     0          0

  
  ERROR 209: undefined object 73383o at line 186 of [CONDUIT] section:
  73383            73383o           73282            67.00      0.0140     649.10     649.00     0          0

  
  ERROR 209: undefined object 73321/9o at line 187 of [CONDUIT] section:
  73321/9          73321/9o         73294            426.00     0.0140     648.50     643.90     0          0

  
  ERROR 209: undefined object 73295o at line 189 of [CONDUIT] section:
  73295            73295o           73262            60.00      0.0150     645.60     644.80     0          0

  
  ERROR 209: undefined object 73301 at line 192 of [CONDUIT] section:
  73299            73301            73301/299        24.00      0.0140     653.00     652.40     0          0

  
  ERROR 209: undefined object 60102/22o at line 193 of [CONDUIT] section:
  60102/22         60102/22o        72794            134.00     0.0140     665.00     661.80     0          0

  
  ERROR 209: undefined object 73039o at line 195 of [CONDUIT] section:
  7303960014       73039o           73000            148.00     0.0240     658.50     653.90     0          0

  
  ERROR 209: undefined object 72827o at line 196 of [CONDUIT] section:
  72827            72827o           72782            154.00     0.0140     671.20     668.80     0          0

  
  ERROR 209: undefined object 60100o at line 197 of [CONDUIT] section:
  6010072829       60100o           60093            48.00      0.0140     668.80     666.80     0          0

  
  ERROR 209: undefined object 72831o at line 198 of [CONDUIT] section:
  72831            72831o           72792            92.00      0.0240     666.80     665.00     0          0

  
  ERROR 209: undefined object 72777o at line 199 of [CONDUIT] section:
  72777            72777o           72728            36.00      0.0140     666.50     666.20     0          0

  
  ERROR 209: undefined object 72935o at line 201 of [CONDUIT] section:
  72935            72935o           72920            76.00      0.0140     663.20     661.80     0          0

  
  ERROR 209: undefined object 72961o at line 203 of [CONDUIT] section:
  72961            72961o           72898            66.00      0.0140     658.90     657.20     0          0

  
  ERROR 209: undefined object 72677/9o at line 206 of [CONDUIT] section:
  72677/9          72677/9o         72632            36.00      0.0140     691.00     690.60     0          0

  
  ERROR 209: undefined object 72681/3o at line 207 of [CONDUIT] section:
  72681/3          72681/3o         72636            60.00      0.0140     690.60     689.60     0          0

  
  ERROR 209: undefined object 72685o at line 208 of [CONDUIT] section:
  72685            72685o           72685.2          300.00     0.0140     689.60     682.35     0          0

  
  ERROR 209: undefined object 72693o at line 209 of [CONDUIT] section:
  72693            72693o           72642            24.00      0.0140     676.30     675.70     0          0

  
  ERROR 209: undefined object 72673/717o at line 210 of [CONDUIT] section:
  72673/717        72673/717o       72626            242.00     0.0140     703.60     699.00     0          0

  
  ERROR 209: undefined object 72711 at line 211 of [CONDUIT] section:
  72705            72711            72705o           165.00     0.0140     699.00     698.70     0          0

  
  ERROR 209: undefined object 73179o at line 212 of [CONDUIT] section:
  73179            73179o           72650            120.00     0.0140     698.70     697.90     0          0

  
  ERROR 209: undefined object 75863o at line 214 of [CONDUIT] section:
  75863            75863o           73840            123.00     0.0140     657.00     655.70     0          0

  
  ERROR 209: undefined object 72685.3o at line 215 of [CONDUIT] section:
  72685.3          72685.3o         72685.4          83.00      0.0100     678.70     677.85     0          0

  
  ERROR 209: undefined object 72685.5o at line 216 of [CONDUIT] section:
  72685.5          72685.5o         72685.6          83.00      0.0140     677.85     676.98     0          0

  
  ERROR 209: undefined object 72687.2o at line 217 of [CONDUIT] section:
  72687.2          72687.2o         72640            41.00      0.0140     676.98     676.48     0          0

  
  ERROR 209: undefined object 6.50 at line 225 of [XSECT] section:
  75859            IRREGULAR    6.50       0          0          0          1

  
  ERROR 209: undefined object 0 at line 230 of [XSECT] section:
  75849            IRREGULAR    0          0          0          0          1

  
  ERROR 209: undefined object 10.00 at line 236 of [XSECT] section:
  73881.1          IRREGULAR    10.00      0          0          0          1

  
  ERROR 209: undefined object 0 at line 240 of [XSECT] section:
  73873            IRREGULAR    0          0          0          0          1

  
  ERROR 209: undefined object 0 at line 242 of [XSECT] section:
  73867            IRREGULAR    0          0          0          0          1

  
  ERROR 209: undefined object 0 at line 244 of [XSECT] section:
  60112            IRREGULAR    0          0          0          0          1

  
  ERROR 209: undefined object 0 at line 245 of [XSECT] section:
  73635            IRREGULAR    0          0          0          0          1

  
  ERROR 209: undefined object 0 at line 246 of [XSECT] section:
  73683            IRREGULAR    0          0          0          0          1

  
  ERROR 209: undefined object 0 at line 248 of [XSECT] section:
  1.251            IRREGULAR    0          0          0          0          1

  
  ERROR 209: undefined object 0 at line 249 of [XSECT] section:
  1.202            IRREGULAR    0          0          0          0          1

  
  ERROR 209: undefined object 0 at line 250 of [XSECT] section:
  1.145            IRREGULAR    0          0          0          0          1

  
  ERROR 209: undefined object 0 at line 251 of [XSECT] section:
  1.05             IRREGULAR    0          0          0          0          1

  
  ERROR 209: undefined object 0 at line 252 of [XSECT] section:
  0.993            IRREGULAR    0          0          0          0          1

  
  ERROR 209: undefined object 0 at line 253 of [XSECT] section:
  0.926            IRREGULAR    0          0          0          0          1

  
  ERROR 209: undefined object 0 at line 254 of [XSECT] section:
  0.861            IRREGULAR    0          0          0          0          1

  
  ERROR 209: undefined object 0 at line 255 of [XSECT] section:
  0.817            IRREGULAR    0          0          0          0          1

  
  ERROR 209: undefined object 0 at line 256 of [XSECT] section:
  0.773            IRREGULAR    0          0          0          0          1

  
  ERROR 209: undefined object 0 at line 258 of [XSECT] section:
  0.683            IRREGULAR    0          0          0          0          1

  
  ERROR 209: undefined object 0 at line 261 of [XSECT] section:
  7339760118       IRREGULAR    0          0          0          0          1

  
  ERROR 209: undefined object 0 at line 262 of [XSECT] section:
  73399-2          IRREGULAR    0          0          0          0          1

  
  ERROR 209: undefined object 0 at line 263 of [XSECT] section:
  7339-1           IRREGULAR    0          0          0          0          1

  
  ERROR 209: undefined object 0 at line 264 of [XSECT] section:
  60106            IRREGULAR    0          0          0          0          1

  
  ERROR 209: undefined object 0 at line 265 of [XSECT] section:
  73267-2          IRREGULAR    0          0          0          0          1

  
  ERROR 209: undefined object 0 at line 266 of [XSECT] section:
  73267-1          IRREGULAR    0          0          0          0          1

  
  ERROR 209: undefined object 0 at line 272 of [XSECT] section:
  403.1            IRREGULAR    0          0          0          0          1

  
  ERROR 209: undefined object 0 at line 273 of [XSECT] section:
  73163            IRREGULAR    0          0          0          0          1

  
  ERROR 209: undefined object 0 at line 275 of [XSECT] section:
  73287/305        IRREGULAR    0          0          0          0          1

  
  ERROR 209: undefined object 0 at line 286 of [XSECT] section:
  72971            IRREGULAR    0          0          0          0          1

  
  ERROR 209: undefined object 0 at line 288 of [XSECT] section:
  7296960116       IRREGULAR    0          0          0          0          1

  
  ERROR 209: undefined object 0 at line 289 of [XSECT] section:
  73037            IRREGULAR    0          0          0          0          1

  
  ERROR 209: undefined object 0 at line 292 of [XSECT] section:
  73041            IRREGULAR    0          0          0          0          1

  
  ERROR 209: undefined object 0 at line 298 of [XSECT] section:
  72779/81         IRREGULAR    0          0          0          0          1

  
  ERROR 209: undefined object 0 at line 300 of [XSECT] section:
  72957/9          IRREGULAR    0          0          0          0          1

  
  ERROR 209: undefined object 0 at line 302 of [XSECT] section:
  72963            IRREGULAR    0          0          0          0          1

  
  ERROR 209: undefined object 0 at line 303 of [XSECT] section:
  72769/75         IRREGULAR    0          0          0          0          1

  
  ERROR 209: undefined object 0 at line 311 of [XSECT] section:
  6009897896       IRREGULAR    0          0          0          0          1

  
  ERROR 209: undefined object 10.00 at line 316 of [XSECT] section:
  73881.2          IRREGULAR    10.00      0          0          0          1

  
  ERROR 209: undefined object 10.00 at line 317 of [XSECT] section:
  187              IRREGULAR    10.00      0          0          0          1


  Analysis begun on:  Sat Mar  7 21:51:21 2026
  Analysis ended on:  Sat Mar  7 21:51:21 2026
  Total elapsed time: < 1 sec