
  EPA STORM WATER MANAGEMENT MODEL - VERSION 5.2 (Build 5.2.4)
  ------------------------------------------------------------

  
  ERROR 209: undefined object 121.2 at line 516 of [CONDUIT] section:
  121.1            121.2            120              34.00      0.0140     4.99       4.90       0          0

  
  ERROR 209: undefined object 130.2 at line 520 of [CONDUIT] section:
  130.1            130.2            129              44.00      0.0140     5.94       5.84       0          0

  
  ERROR 209: undefined object ? at line 522 of [CONDUIT] section:
  Link_271         ?                ?                7755.00    0          11.00      3.28       0          0

  
  ERROR 209: undefined object ? at line 580 of [CONDUIT] section:
  Link_384         ?                ?                126.00     0.0140     0.58       0.62       0          0

  
  ERROR 209: undefined object 780.2 at line 855 of [CONDUIT] section:
  780.1            780.2            779              55.00      0.0240     8.85       8.66       0          0

  
  ERROR 209: undefined object Node_837 at line 881 of [CONDUIT] section:
  837              Node_837         Node_10001001    25.00      0.0140     6.29       5.68       0          0

  
  ERROR 209: undefined object Node_839 at line 882 of [CONDUIT] section:
  839              Node_839         Node_10011003    2305.00    0.0140     5.68       4.48       0          0

  
  ERROR 209: undefined object Node_841 at line 883 of [CONDUIT] section:
  841              Node_841         Node_10031005    1385.00    0          4.48       4.92       0          0

  
  ERROR 209: undefined object Node_843 at line 884 of [CONDUIT] section:
  843              Node_843         Node_10051007    25.00      0.0140     4.92       4.57       0          0

  
  ERROR 209: undefined object Node_845 at line 885 of [CONDUIT] section:
  845              Node_845         Node_10071009    1217.00    0          4.57       1.62       0          0

  
  ERROR 209: undefined object Node_848 at line 886 of [CONDUIT] section:
  848              Node_848         Node_10091011    88.00      0.0140     1.62       1.37       0          0

  
  ERROR 209: undefined object Node_850 at line 887 of [CONDUIT] section:
  850              Node_850         Node_10111013    397.00     0          1.37       3.23       0          0

  
  ERROR 209: undefined object Node_851 at line 888 of [CONDUIT] section:
  851              Node_851         Node_1013993     808.00     0          3.23       2.31       0          0

  
  ERROR 209: undefined object Node_854 at line 889 of [CONDUIT] section:
  854              Node_854         Node_10161017    22.00      0.0240     4.92       4.70       0          0

  
  ERROR 209: undefined object Node_855 at line 890 of [CONDUIT] section:
  855              Node_855         Node_10171003    1537.00    0          4.70       4.48       0          0

  
  ERROR 209: undefined object Node_857 at line 891 of [CONDUIT] section:
  857              Node_857         Node_10031020    2298.00    0          4.48       3.14       0          0

  
  ERROR 209: undefined object Node_859 at line 892 of [CONDUIT] section:
  859              Node_859         Node_10201022    2481.00    0.0140     3.14       0.89       0          0

  
  ERROR 209: undefined object Node_861 at line 893 of [CONDUIT] section:
  861              Node_861         Node_10221024    1814.00    0          0.89       -1.25      0          0

  
  ERROR 209: undefined object Node_864 at line 894 of [CONDUIT] section:
  864              Node_864         Node_10261027    1136.00    0          0.65       0.76       0          0

  
  ERROR 209: undefined object Node_866 at line 895 of [CONDUIT] section:
  866              Node_866         Node_10291027    225.00     0.0140     2.63       0.76       0          0

  
  ERROR 209: undefined object Node_868 at line 896 of [CONDUIT] section:
  868              Node_868         Node_10271031    134.00     0.0140     0.76       0.31       0          0

  
  ERROR 209: undefined object Node_870 at line 897 of [CONDUIT] section:
  870              Node_870         Node_10291033    136.00     0.0140     2.63       1.06       0          0

  
  ERROR 209: undefined object Node_871 at line 898 of [CONDUIT] section:
  871              Node_871         Node_10331031    231.00     0          1.06       0.31       0          0

  
  ERROR 209: undefined object Node_873 at line 899 of [CONDUIT] section:
  873              Node_873         Node_10361027    891.00     0.0140     0.90       0.76       0          0

  
  ERROR 209: undefined object Node_875 at line 900 of [CONDUIT] section:
  875              Node_875         Node_10381029    1344.00    0.0140     4.14       2.63       0          0

  
  ERROR 209: undefined object Node_877 at line 901 of [CONDUIT] section:
  877              Node_877         Node_10311040    5161.00    0.0140     0.31       -3.89      0          0

  
  ERROR 209: undefined object Node_879 at line 902 of [CONDUIT] section:
  879              Node_879         Node_10241042    122.00     0.0140     -1.25      -1.18      0          0

  
  ERROR 209: undefined object Node_884 at line 903 of [CONDUIT] section:
  884              Node_884         Node_10441045    61.00      0.0240     9.06       9.01       0          0

  
  ERROR 209: undefined object Node_886 at line 904 of [CONDUIT] section:
  886              Node_886         Node_10451047    662.00     0.0140     9.01       7.17       0          0

  
  ERROR 209: undefined object Node_888 at line 905 of [CONDUIT] section:
  888              Node_888         Node_10471049    43.00      0.0240     7.17       7.45       0          0

  
  ERROR 209: undefined object Node_890 at line 906 of [CONDUIT] section:
  890              Node_890         Node_10491051    2641.00    0.0140     7.45       8.20       0          0

  
  ERROR 209: undefined object Node_891 at line 907 of [CONDUIT] section:
  891              Node_891         Node_10511022    1949.00    0.0140     8.20       0.89       0          0

  
  ERROR 209: undefined object Node_894 at line 908 of [CONDUIT] section:
  894              Node_894         Node_10541055    160.00     0.0240     7.92       6.93       0          0

  
  ERROR 209: undefined object Node_896 at line 909 of [CONDUIT] section:
  896              Node_896         Node_10551057    3210.00    0          6.93       3.94       0          0

  
  ERROR 209: undefined object Node_898 at line 910 of [CONDUIT] section:
  898              Node_898         Node_10571059    84.00      0.0240     3.94       4.09       0          0

  
  ERROR 209: undefined object Node_900 at line 911 of [CONDUIT] section:
  900              Node_900         Node_10591061    2212.00    0          4.09       -0.27      0          0

  
  ERROR 209: undefined object ? at line 912 of [CONDUIT] section:
  902              ?                950              125.00     0.0140     -0.27      -2.20      0          0

  
  ERROR 209: undefined object Node_905 at line 913 of [CONDUIT] section:
  905              Node_905         Node_10651066    100.00     0.0240     7.98       7.13       0          0

  
  ERROR 209: undefined object ? at line 914 of [CONDUIT] section:
  910              ?                734              86.00      0.0240     3.95       2.47       0          0

  
  ERROR 209: undefined object Node_911 at line 915 of [CONDUIT] section:
  911              Node_911         Node_10661068    3269.00    0          7.13       3.95       0          0

  
  ERROR 209: undefined object Node_914 at line 916 of [CONDUIT] section:
  914              Node_914         Node_10721073    134.00     0.0240     -0.10      -1.50      0          0

  
  ERROR 209: undefined object ? at line 917 of [CONDUIT] section:
  915              ?                954              2250.00    0.0140     2.47       -1.50      0          0

  
  ERROR 209: undefined object Node_918 at line 918 of [CONDUIT] section:
  918              Node_918         Node_10761077    48.00      0.0240     8.33       7.94       0          0

  
  ERROR 209: undefined object Node_920 at line 919 of [CONDUIT] section:
  920              Node_920         Node_10771079    3322.00    0          7.94       4.71       0          0

  
  ERROR 209: undefined object Node_922 at line 920 of [CONDUIT] section:
  922              Node_922         Node_10791081    36.00      0.0240     4.71       4.59       0          0

  
  ERROR 209: undefined object 925.2 at line 921 of [CONDUIT] section:
  925.1            925.2            961              44.00      0.0140     7.72       7.69       0          0

  
  ERROR 209: undefined object ? at line 922 of [CONDUIT] section:
  928              ?                964              28.00      0.0100     3.86       4.04       0          0

  
  ERROR 209: undefined object Node_929 at line 923 of [CONDUIT] section:
  929              Node_929         Node_10841086    3360.00    0          7.43       3.86       0          0

  
  ERROR 209: undefined object Node_932 at line 924 of [CONDUIT] section:
  932              Node_932         Node_10901091    50.00      0.0140     7.53       7.41       0          0

  
  ERROR 209: undefined object ? at line 925 of [CONDUIT] section:
  934              ?                766              3280.00    0.0140     7.41       1.85       0          0

  
  ERROR 209: undefined object Node_936 at line 926 of [CONDUIT] section:
  936              Node_936         Node_10931095    50.00      0.0240     1.85       0.50       0          0

  
  ERROR 209: undefined object Node_938 at line 927 of [CONDUIT] section:
  938              Node_938         Node_10951097    2101.00    0          0.50       -2.08      0          0

  
  ERROR 209: undefined object ? at line 928 of [CONDUIT] section:
  940              ?                772              128.00     0.0140     -2.08      -3.46      0          0

  
  ERROR 209: undefined object ? at line 929 of [CONDUIT] section:
  986              ?                821              20.00      0.0140     -3.46      -3.69      0          0

  
  ERROR 209: undefined object Node_1014 at line 942 of [CONDUIT] section:
  1014             Node_1014        Node_11031120    0          0          0          0          0          0

  
  ERROR 209: undefined object Node_1015 at line 943 of [CONDUIT] section:
  1015             Node_1015        Node_11441120    0          0          0          0          0          0

  
  ERROR 209: undefined object ? at line 945 of [CONDUIT] section:
  1017             ?                853              0          0          0          0          0          0

  
  ERROR 209: undefined object Node_1018 at line 946 of [CONDUIT] section:
  1018             Node_1018        Node_10421120    0          0          0          0          0          0

  
  ERROR 209: undefined object ? at line 947 of [CONDUIT] section:
  1020             ?                856              0          0          0          0          0          0

  
  ERROR 209: undefined object Node_1019 at line 948 of [CONDUIT] section:
  1019             Node_1019        Node_10631120    0          0          0          0          0          0

  
  ERROR 209: undefined object Node_1021 at line 949 of [CONDUIT] section:
  1021             Node_1021        Node_10991120    0          0          0          0          0          0

  
  ERROR 209: undefined object Node_1023 at line 950 of [CONDUIT] section:
  1023             Node_1023        Node_11131129    0          0          0          0          0          0

  
  ERROR 209: undefined object ? at line 951 of [CONDUIT] section:
  1024             ?                860              0          0          0          0          0          0

  
  ERROR 209: undefined object Node_1025 at line 952 of [CONDUIT] section:
  1025             Node_1025        Node_11201129    0          0          0          0          0          0

  
  ERROR 209: undefined object Node_1032 at line 958 of [CONDUIT] section:
  1032             Node_1032        Node_11341113    0          0          0          0          0          0

  
  ERROR 209: undefined object Node_992 at line 960 of [CONDUIT] section:
  992              Node_992         Node_1141655     1523.00    0.0140     0.32       -0.22      0          0

  
  ERROR 209: undefined object ? at line 961 of [CONDUIT] section:
  1051             ?                889              100.00     0          0          -0.10      0          0

  
  ERROR 209: undefined object p#2 at line 967 of [PUMP] section:
  p#1              p#2              p#3              PC_p#1     ON       -1.50      -3.00     

  
  ERROR 209: undefined object 7.00 at line 980 of [XSECT] section:
  57               IRREGULAR    7.00       0          0          0          1

  
  ERROR 209: undefined object 5.00 at line 981 of [XSECT] section:
  63               IRREGULAR    5.00       0          0          0          1

  
  ERROR 209: undefined object 0 at line 982 of [XSECT] section:
  65               IRREGULAR    0          0          0          0          1

  
  ERROR 209: undefined object 0 at line 985 of [XSECT] section:
  71               IRREGULAR    0          0          0          0          1

  
  ERROR 209: undefined object 5.00 at line 986 of [XSECT] section:
  73               IRREGULAR    5.00       0          0          0          1

  
  ERROR 209: undefined object 5.00 at line 988 of [XSECT] section:
  78               IRREGULAR    5.00       0          0          0          1

  
  ERROR 209: undefined object 5.00 at line 992 of [XSECT] section:
  87               IRREGULAR    5.00       0          0          0          1

  
  ERROR 209: undefined object 0 at line 993 of [XSECT] section:
  88               IRREGULAR    0          0          0          0          1

  
  ERROR 209: undefined object 4.00 at line 994 of [XSECT] section:
  94               IRREGULAR    4.00       0          0          0          1

  
  ERROR 209: undefined object 4.00 at line 995 of [XSECT] section:
  95               IRREGULAR    4.00       0          0          0          1

  
  ERROR 209: undefined object 3.00 at line 996 of [XSECT] section:
  96               IRREGULAR    3.00       0          0          0          1

  
  ERROR 209: undefined object 2.00 at line 997 of [XSECT] section:
  99               IRREGULAR    2.00       0          0          0          1

  
  ERROR 209: undefined object 2.00 at line 998 of [XSECT] section:
  101              IRREGULAR    2.00       0          0          0          1

  
  ERROR 209: undefined object 3.00 at line 999 of [XSECT] section:
  105              IRREGULAR    3.00       0          0          0          1

  
  ERROR 209: undefined object 3.00 at line 1001 of [XSECT] section:
  108              IRREGULAR    3.00       0          0          0          1

  
  ERROR 209: undefined object 5.00 at line 1002 of [XSECT] section:
  110              IRREGULAR    5.00       0          0          0          1

  
  ERROR 209: undefined object 0 at line 1003 of [XSECT] section:
  112              IRREGULAR    0          0          0          0          1

  
  ERROR 209: undefined object 3.50 at line 1004 of [XSECT] section:
  114              IRREGULAR    3.50       0          0          0          1

  
  ERROR 209: undefined object 3.00 at line 1005 of [XSECT] section:
  116              IRREGULAR    3.00       0          0          0          1

  
  ERROR 209: undefined object 2.50 at line 1006 of [XSECT] section:
  119              IRREGULAR    2.50       0          0          0          1

  
  ERROR 209: undefined object 3.20 at line 1008 of [XSECT] section:
  122              IRREGULAR    3.20       0          0          0          1

  
  ERROR 209: undefined object 3.00 at line 1010 of [XSECT] section:
  128              IRREGULAR    3.00       0          0          0          1

  
  ERROR 209: undefined object 2.50 at line 1012 of [XSECT] section:
  131              IRREGULAR    2.50       0          0          0          1

  
  ERROR 209: undefined object 2.30 at line 1013 of [XSECT] section:
  Link_271         IRREGULAR    2.30       0          0          0          1

  
  ERROR 209: undefined object 0 at line 1014 of [XSECT] section:
  133              IRREGULAR    0          0          0          0          1

  
  ERROR 209: undefined object 0 at line 1015 of [XSECT] section:
  136              IRREGULAR    0          0          0          0          1

  
  ERROR 209: undefined object 3.00 at line 1017 of [XSECT] section:
  139              IRREGULAR    3.00       0          0          0          1

  
  ERROR 209: undefined object 3.00 at line 1018 of [XSECT] section:
  141              IRREGULAR    3.00       0          0          0          1

  
  ERROR 209: undefined object 3.20 at line 1019 of [XSECT] section:
  144              IRREGULAR    3.20       0          0          0          1

  
  ERROR 209: undefined object 3.00 at line 1022 of [XSECT] section:
  150              IRREGULAR    3.00       0          0          0          1

  
  ERROR 209: undefined object 2.30 at line 1025 of [XSECT] section:
  156              IRREGULAR    2.30       0          0          0          1

  
  ERROR 209: undefined object 5.00 at line 1026 of [XSECT] section:
  157              IRREGULAR    5.00       0          0          0          1

  
  Maximum error count exceeded.

  Analysis begun on:  Sat Mar  7 21:51:23 2026
  Analysis ended on:  Sat Mar  7 21:51:23 2026
  Total elapsed time: < 1 sec