
  EPA STORM WATER MANAGEMENT MODEL - VERSION 5.2 (Build 5.2.4)
  ------------------------------------------------------------

  
  ERROR 209: undefined object 5.2NS at line 157 of [CONDUIT] section:
  5.2U             5.2NS            215              14.70      0.0150     25.83      25.68      0          0

  
  ERROR 209: undefined object WENTNS at line 172 of [CONDUIT] section:
  WENTU            WENTNS           256              22.00      0.0150     33.16      33.09      0          0

  
  ERROR 209: undefined object RAILNS at line 173 of [CONDUIT] section:
  RAILU            RAILNS           258              37.00      0.0150     33.47      33.16      0          0

  
  ERROR 209: undefined object STATNS at line 177 of [CONDUIT] section:
  STATNU           STATNS           288              23.80      0.0150     24.63      24.51      0          0

  
  ERROR 209: undefined object PH12NS at line 182 of [CONDUIT] section:
  PH12C            PH12NS           249              60.00      0.0150     33.10      33.05      0          0

  
  ERROR 209: undefined object SURF1 at line 206 of [CONDUIT] section:
  PIPE1            SURF1            O19              90.00      0.0140     26.20      25.30      0          0

  
  ERROR 209: undefined object SURF2 at line 207 of [CONDUIT] section:
  PIPE2            SURF2            O20              120.00     0.0140     25.30      24.10      0          0

  
  ERROR 209: undefined object SURF3 at line 208 of [CONDUIT] section:
  PIPE3            SURF3            O11              60.00      0.0140     24.10      23.46      0          0

  
  ERROR 209: undefined object SURF4 at line 209 of [CONDUIT] section:
  PIPE4            SURF4            O12              171.00     0.0140     23.46      22.44      0          0

  
  ERROR 209: undefined object SURF5 at line 210 of [CONDUIT] section:
  PIPE5            SURF5            O13              180.00     0.0140     22.39      22.01      0          0

  
  ERROR 209: undefined object SURF6 at line 211 of [CONDUIT] section:
  PIPE6            SURF6            64.01            80.00      0.0140     22.01      21.84      0          0

  
  ERROR 209: undefined object ? at line 230 of [CONDUIT] section:
  661              ?                ?                0          0          26.50      26.38      0          0

  
  ERROR 209: undefined object portr at line 232 of [CONDUIT] section:
  portc            portr            628              8.00       0.0150     29.57      29.57      0          0

  
  ERROR 209: undefined object octrd at line 233 of [CONDUIT] section:
  octcul           octrd            667              10.00      0.0300     28.40      28.37      0          0

  
  ERROR 209: undefined object cornr at line 234 of [CONDUIT] section:
  cornc            cornr            614              17.50      0.0150     27.35      27.25      0          0

  
  ERROR 209: undefined object portir at line 235 of [CONDUIT] section:
  portic           portir           680              14.00      0.0150     26.40      26.38      0          0

  
  ERROR 209: undefined object ? at line 238 of [CONDUIT] section:
  681              ?                ?                0          0          26.38      25.99      0          0

  
  ERROR 209: undefined object PH2NS at line 249 of [WEIR] section:
  PH2BC            PH2NS            208              TRANSVERSE 0          1.840      NO       0        0          YES

  
  ERROR 209: undefined object SURF7 at line 254 of [WEIR] section:
  PIPE7            SURF7            SURF7B           TRANSVERSE 26.00      1.840      NO       0        0          YES

  
  ERROR 209: undefined object FITZ2 at line 255 of [WEIR] section:
  FITZ1            FITZ2            FITZ3            TRANSVERSE 26.35      1.840      NO       0        0          YES

  
  ERROR 209: undefined object ? at line 256 of [WEIR] section:
  700              ?                ?                TRANSVERSE 26.50      1.840      NO       0        0          YES

  
  ERROR 209: undefined object ? at line 257 of [WEIR] section:
  701              ?                ?                TRANSVERSE 26.50      1.840      NO       0        0          YES

  
  ERROR 209: undefined object 12.00 at line 262 of [XSECT] section:
  T33.1            IRREGULAR    12.00      0          0          0          1

  
  ERROR 209: undefined object 12.00 at line 263 of [XSECT] section:
  T32.7            IRREGULAR    12.00      0          0          0          1

  
  ERROR 209: undefined object 12.00 at line 264 of [XSECT] section:
  T32.5            IRREGULAR    12.00      0          0          0          1

  
  ERROR 209: undefined object 12.00 at line 265 of [XSECT] section:
  T32.3            IRREGULAR    12.00      0          0          0          1

  
  ERROR 209: undefined object 12.00 at line 266 of [XSECT] section:
  T31.15           IRREGULAR    12.00      0          0          0          1

  
  ERROR 209: undefined object 12.00 at line 267 of [XSECT] section:
  JOHNST           IRREGULAR    12.00      0          0          0          1

  
  ERROR 209: undefined object 15.00 at line 268 of [XSECT] section:
  T32.0            IRREGULAR    15.00      0          0          0          1

  
  ERROR 209: undefined object 15.00 at line 269 of [XSECT] section:
  T30.3            IRREGULAR    15.00      0          0          0          1

  
  ERROR 209: undefined object 12.00 at line 270 of [XSECT] section:
  T33.2            IRREGULAR    12.00      0          0          0          1

  
  ERROR 209: undefined object 10.00 at line 271 of [XSECT] section:
  PH1.2            IRREGULAR    10.00      0          0          0          1

  
  ERROR 209: undefined object 10.00 at line 272 of [XSECT] section:
  PH1.15           IRREGULAR    10.00      0          0          0          1

  
  ERROR 209: undefined object 10.00 at line 273 of [XSECT] section:
  PH1.0            IRREGULAR    10.00      0          0          0          1

  
  ERROR 209: undefined object 10.00 at line 274 of [XSECT] section:
  PH1.54           IRREGULAR    10.00      0          0          0          1

  
  ERROR 209: undefined object 10.00 at line 275 of [XSECT] section:
  PH1.7            IRREGULAR    10.00      0          0          0          1

  
  ERROR 209: undefined object 10.00 at line 276 of [XSECT] section:
  PH2.0            IRREGULAR    10.00      0          0          0          1

  
  ERROR 209: undefined object 10.00 at line 277 of [XSECT] section:
  PH3.1            IRREGULAR    10.00      0          0          0          1

  
  ERROR 209: undefined object 10.00 at line 278 of [XSECT] section:
  PH2.4            IRREGULAR    10.00      0          0          0          1

  
  ERROR 209: undefined object 10.00 at line 279 of [XSECT] section:
  PH4.1            IRREGULAR    10.00      0          0          0          1

  
  ERROR 209: undefined object 10.00 at line 280 of [XSECT] section:
  PH4.0            IRREGULAR    10.00      0          0          0          1

  
  ERROR 209: undefined object 10.00 at line 281 of [XSECT] section:
  PH3.2            IRREGULAR    10.00      0          0          0          1

  
  ERROR 209: undefined object 10.00 at line 283 of [XSECT] section:
  PH9.3            IRREGULAR    10.00      0          0          0          1

  
  ERROR 209: undefined object 10.00 at line 284 of [XSECT] section:
  PH9.1            IRREGULAR    10.00      0          0          0          1

  
  ERROR 209: undefined object 10.00 at line 285 of [XSECT] section:
  PH9              IRREGULAR    10.00      0          0          0          1

  
  ERROR 209: undefined object 10.00 at line 286 of [XSECT] section:
  PH8              IRREGULAR    10.00      0          0          0          1

  
  ERROR 209: undefined object 10.00 at line 287 of [XSECT] section:
  PH7.4            IRREGULAR    10.00      0          0          0          1

  
  ERROR 209: undefined object 10.00 at line 288 of [XSECT] section:
  PH7.2            IRREGULAR    10.00      0          0          0          1

  
  ERROR 209: undefined object 10.00 at line 289 of [XSECT] section:
  PH7              IRREGULAR    10.00      0          0          0          1

  
  ERROR 209: undefined object 10.00 at line 290 of [XSECT] section:
  PH6.5            IRREGULAR    10.00      0          0          0          1

  
  ERROR 209: undefined object 10.00 at line 291 of [XSECT] section:
  PH6.0            IRREGULAR    10.00      0          0          0          1

  
  ERROR 209: undefined object 10.00 at line 292 of [XSECT] section:
  PH5.7            IRREGULAR    10.00      0          0          0          1

  
  ERROR 209: undefined object 10.00 at line 293 of [XSECT] section:
  PH5.4            IRREGULAR    10.00      0          0          0          1

  
  ERROR 209: undefined object 10.00 at line 294 of [XSECT] section:
  PH11.5           IRREGULAR    10.00      0          0          0          1

  
  ERROR 209: undefined object 10.00 at line 295 of [XSECT] section:
  PH11             IRREGULAR    10.00      0          0          0          1

  
  ERROR 209: undefined object 10.00 at line 296 of [XSECT] section:
  PH13             IRREGULAR    10.00      0          0          0          1

  
  ERROR 209: undefined object 10.00 at line 299 of [XSECT] section:
  G2.6             IRREGULAR    10.00      0          0          0          1

  
  ERROR 209: undefined object 10.00 at line 300 of [XSECT] section:
  G2.5             IRREGULAR    10.00      0          0          0          1

  
  ERROR 209: undefined object 10.00 at line 301 of [XSECT] section:
  G2.2             IRREGULAR    10.00      0          0          0          1

  
  ERROR 209: undefined object 10.00 at line 303 of [XSECT] section:
  G3.13a           IRREGULAR    10.00      0          0          0          1

  
  ERROR 209: undefined object 10.00 at line 304 of [XSECT] section:
  G3.13            IRREGULAR    10.00      0          0          0          1

  
  ERROR 209: undefined object 10.00 at line 305 of [XSECT] section:
  G3.12            IRREGULAR    10.00      0          0          0          1

  
  ERROR 209: undefined object 10.00 at line 306 of [XSECT] section:
  PH10.2           IRREGULAR    10.00      0          0          0          1

  
  ERROR 209: undefined object 10.00 at line 308 of [XSECT] section:
  PH14.4           IRREGULAR    10.00      0          0          0          1

  
  ERROR 209: undefined object 10.00 at line 309 of [XSECT] section:
  RAILG            IRREGULAR    10.00      0          0          0          1

  
  ERROR 209: undefined object 10.00 at line 310 of [XSECT] section:
  O1O5             IRREGULAR    10.00      0          0          0          1

  
  ERROR 209: undefined object 10.00 at line 311 of [XSECT] section:
  O5O8             IRREGULAR    10.00      0          0          0          1

  
  ERROR 209: undefined object 0 at line 312 of [XSECT] section:
  O8O11            IRREGULAR    0          0          0          0          1

  
  ERROR 209: undefined object 10.00 at line 313 of [XSECT] section:
  O8O9             IRREGULAR    10.00      0          0          0          1

  
  ERROR 209: undefined object 10.00 at line 314 of [XSECT] section:
  O9O10            IRREGULAR    10.00      0          0          0          1

  
  ERROR 209: undefined object 10.00 at line 315 of [XSECT] section:
  O5O6             IRREGULAR    10.00      0          0          0          1

  
  ERROR 209: undefined object 10.00 at line 316 of [XSECT] section:
  O6O7             IRREGULAR    10.00      0          0          0          1

  
  ERROR 209: undefined object 10.00 at line 317 of [XSECT] section:
  O1O2             IRREGULAR    10.00      0          0          0          1

  
  ERROR 209: undefined object 10.00 at line 318 of [XSECT] section:
  O2O3             IRREGULAR    10.00      0          0          0          1

  
  ERROR 209: undefined object 10.00 at line 319 of [XSECT] section:
  O3O4             IRREGULAR    10.00      0          0          0          1

  
  ERROR 209: undefined object 10.00 at line 320 of [XSECT] section:
  O2O6             IRREGULAR    10.00      0          0          0          1

  
  ERROR 209: undefined object 10.00 at line 321 of [XSECT] section:
  O6O9             IRREGULAR    10.00      0          0          0          1

  
  ERROR 209: undefined object 10.00 at line 322 of [XSECT] section:
  O9O12            IRREGULAR    10.00      0          0          0          1

  
  ERROR 209: undefined object 10.00 at line 323 of [XSECT] section:
  O4O7             IRREGULAR    10.00      0          0          0          1

  
  ERROR 209: undefined object 10.00 at line 324 of [XSECT] section:
  O7O10            IRREGULAR    10.00      0          0          0          1

  
  ERROR 209: undefined object 10.00 at line 325 of [XSECT] section:
  O10O13           IRREGULAR    10.00      0          0          0          1

  
  ERROR 209: undefined object 10.00 at line 326 of [XSECT] section:
  O15203           IRREGULAR    10.00      0          0          0          1

  
  ERROR 209: undefined object 10.00 at line 327 of [XSECT] section:
  209O5            IRREGULAR    10.00      0          0          0          1

  
  ERROR 209: undefined object 10.00 at line 328 of [XSECT] section:
  O14O15           IRREGULAR    10.00      0          0          0          1

  
  ERROR 209: undefined object 10.00 at line 329 of [XSECT] section:
  299O14           IRREGULAR    10.00      0          0          0          1

  
  ERROR 209: undefined object 10.00 at line 330 of [XSECT] section:
  PH12             IRREGULAR    10.00      0          0          0          1

  
  ERROR 209: undefined object 10.00 at line 338 of [XSECT] section:
  G16.0            IRREGULAR    10.00      0          0          0          1

  
  ERROR 209: undefined object 10.00 at line 339 of [XSECT] section:
  G15.5            IRREGULAR    10.00      0          0          0          1

  
  ERROR 209: undefined object 10.00 at line 340 of [XSECT] section:
  G15.0            IRREGULAR    10.00      0          0          0          1

  
  ERROR 209: undefined object 10.00 at line 341 of [XSECT] section:
  G14.0            IRREGULAR    10.00      0          0          0          1

  
  ERROR 209: undefined object 10.00 at line 342 of [XSECT] section:
  G13.2            IRREGULAR    10.00      0          0          0          1

  
  ERROR 209: undefined object 10.00 at line 343 of [XSECT] section:
  G13.1            IRREGULAR    10.00      0          0          0          1

  
  ERROR 209: undefined object 10.00 at line 344 of [XSECT] section:
  G13.0            IRREGULAR    10.00      0          0          0          1

  
  ERROR 209: undefined object 10.00 at line 345 of [XSECT] section:
  G12.0            IRREGULAR    10.00      0          0          0          1

  
  ERROR 209: undefined object 10.00 at line 346 of [XSECT] section:
  G11.0            IRREGULAR    10.00      0          0          0          1

  
  ERROR 209: undefined object 10.00 at line 347 of [XSECT] section:
  G10.5            IRREGULAR    10.00      0          0          0          1

  
  ERROR 209: undefined object 10.00 at line 348 of [XSECT] section:
  G10.0            IRREGULAR    10.00      0          0          0          1

  
  ERROR 209: undefined object 10.00 at line 349 of [XSECT] section:
  G7.0             IRREGULAR    10.00      0          0          0          1

  
  ERROR 209: undefined object 10.00 at line 350 of [XSECT] section:
  G6.0             IRREGULAR    10.00      0          0          0          1

  
  ERROR 209: undefined object 10.00 at line 351 of [XSECT] section:
  G5.2             IRREGULAR    10.00      0          0          0          1

  
  Maximum error count exceeded.

  Analysis begun on:  Sat Mar  7 21:51:32 2026
  Analysis ended on:  Sat Mar  7 21:51:32 2026
  Total elapsed time: < 1 sec