
  EPA STORM WATER MANAGEMENT MODEL - VERSION 5.2 (Build 5.2.4)
  ------------------------------------------------------------

  
  ERROR 209: undefined object ? at line 120 of [CONDUIT] section:
  IC-G331C         ?                ?                65.00      0.0240     6.00       6.00       0          0

  
  ERROR 209: undefined object 0 at line 132 of [XSECT] section:
  IC-10            IRREGULAR    0          0          0          0          1

  
  ERROR 209: undefined object 0 at line 133 of [XSECT] section:
  IC-20            IRREGULAR    0          0          0          0          1

  
  ERROR 209: undefined object 0 at line 134 of [XSECT] section:
  IC-30            IRREGULAR    0          0          0          0          1

  
  ERROR 209: undefined object 0 at line 135 of [XSECT] section:
  IC-40            IRREGULAR    0          0          0          0          1

  
  ERROR 209: undefined object 0 at line 136 of [XSECT] section:
  IC-50            IRREGULAR    0          0          0          0          1

  
  ERROR 209: undefined object 0 at line 137 of [XSECT] section:
  IC-60            IRREGULAR    0          0          0          0          1

  
  ERROR 209: undefined object 0 at line 138 of [XSECT] section:
  IC-70            IRREGULAR    0          0          0          0          1

  
  ERROR 209: undefined object 0 at line 145 of [XSECT] section:
  IC-80            IRREGULAR    0          0          0          0          1

  
  ERROR 209: undefined object 0 at line 146 of [XSECT] section:
  IC-85            IRREGULAR    0          0          0          0          1

  
  ERROR 209: undefined object 0 at line 147 of [XSECT] section:
  IC-90            IRREGULAR    0          0          0          0          1

  
  ERROR 209: undefined object 0 at line 148 of [XSECT] section:
  IC-100           IRREGULAR    0          0          0          0          1

  
  ERROR 209: undefined object 0 at line 149 of [XSECT] section:
  IC-110           IRREGULAR    0          0          0          0          1

  
  ERROR 209: undefined object 0 at line 150 of [XSECT] section:
  IC-120           IRREGULAR    0          0          0          0          1

  
  ERROR 209: undefined object 0 at line 151 of [XSECT] section:
  IC-130           IRREGULAR    0          0          0          0          1

  
  ERROR 209: undefined object 0 at line 152 of [XSECT] section:
  IC-140           IRREGULAR    0          0          0          0          1

  
  ERROR 209: undefined object 0 at line 153 of [XSECT] section:
  IC-150           IRREGULAR    0          0          0          0          1

  
  ERROR 209: undefined object 0 at line 154 of [XSECT] section:
  IC-160           IRREGULAR    0          0          0          0          1

  
  ERROR 209: undefined object 0 at line 155 of [XSECT] section:
  IC-170           IRREGULAR    0          0          0          0          1

  
  ERROR 209: undefined object 0 at line 156 of [XSECT] section:
  IC-180           IRREGULAR    0          0          0          0          1

  
  ERROR 209: undefined object 0 at line 157 of [XSECT] section:
  IC-190           IRREGULAR    0          0          0          0          1

  
  ERROR 209: undefined object 0 at line 158 of [XSECT] section:
  IC-200           IRREGULAR    0          0          0          0          1


  Analysis begun on:  Sat Mar  7 21:51:22 2026
  Analysis ended on:  Sat Mar  7 21:51:22 2026
  Total elapsed time: < 1 sec