
  EPA STORM WATER MANAGEMENT MODEL - VERSION 5.2 (Build 5.2.4)
  ------------------------------------------------------------

  
  ERROR 209: undefined object FD-C1S5-U1 at line 267 of [CONDUIT] section:
  T-C1S5-U1        FD-C1S5-U1       U1-N             50.00      0.0140     9.10       9.10       0          0

  
  ERROR 209: undefined object U15-2 at line 387 of [CONDUIT] section:
  U15-1            U15-2            U15-S            33.00      0.0140     0          0          0          0

  
  ERROR 209: undefined object U12-2 at line 469 of [CONDUIT] section:
  U12-1            U12-2            U12-3            88.00      0.0140     3.05       3.05       0          0

  
  ERROR 209: undefined object U11-2 at line 470 of [CONDUIT] section:
  U11-1            U11-2            U11-3            76.00      0.0140     1.40       1.40       0          0

  
  ERROR 209: undefined object U17B at line 478 of [CONDUIT] section:
  U17A             U17B             U17C             36.00      0.0140     -2.00      -2.00      0          0

  
  ERROR 209: undefined object S149B at line 479 of [CONDUIT] section:
  S149A            S149B            S149-E           66.00      0.0140     -3.30      -3.40      0          0

  
  ERROR 209: undefined object S338B at line 480 of [CONDUIT] section:
  S338A            S338B            S338-E           84.00      0.0140     -4.50      -5.00      0          0

  
  ERROR 209: undefined object G211B at line 481 of [CONDUIT] section:
  G211A            G211B            G211-S           50.00      0.0140     -10.00     -10.00     0          0

  
  ERROR 209: undefined object C1S7A-LAKE at line 490 of [CONDUIT] section:
  C1S7A-B9N.       C1S7A-LAKE       B9-N             55.00      0.0140     7.80       7.80       0          0

  
  ERROR 209: undefined object PC1N6E-U1N at line 505 of [CONDUIT] section:
  C1N6E-U1N        PC1N6E-U1N       U1-N             50.00      0.0140     8.10       8.10       0          0

  
  ERROR 209: undefined object 0 at line 525 of [XSECT] section:
  L31-C-2          IRREGULAR    0          0          0          0          1

  
  ERROR 209: undefined object 0 at line 526 of [XSECT] section:
  L31-C-3          IRREGULAR    0          0          0          0          1

  
  ERROR 209: undefined object 0 at line 527 of [XSECT] section:
  L31-C-4          IRREGULAR    0          0          0          0          1

  
  ERROR 209: undefined object 0 at line 528 of [XSECT] section:
  L31-C-5          IRREGULAR    0          0          0          0          1

  
  ERROR 209: undefined object 0 at line 532 of [XSECT] section:
  C1-C-1           IRREGULAR    0          0          0          0          1

  
  ERROR 209: undefined object 0 at line 533 of [XSECT] section:
  C1-C-8           IRREGULAR    0          0          0          0          1

  
  ERROR 209: undefined object 0 at line 534 of [XSECT] section:
  C1-C-9           IRREGULAR    0          0          0          0          1

  
  ERROR 209: undefined object 0 at line 535 of [XSECT] section:
  C1-C-10          IRREGULAR    0          0          0          0          1

  
  ERROR 209: undefined object 0 at line 536 of [XSECT] section:
  C1-C-2           IRREGULAR    0          0          0          0          1

  
  ERROR 209: undefined object 0 at line 537 of [XSECT] section:
  C1-C-3           IRREGULAR    0          0          0          0          1

  
  ERROR 209: undefined object 0 at line 538 of [XSECT] section:
  C1-C-6           IRREGULAR    0          0          0          0          1

  
  ERROR 209: undefined object 0 at line 539 of [XSECT] section:
  C1-C-7           IRREGULAR    0          0          0          0          1

  
  ERROR 209: undefined object 0 at line 540 of [XSECT] section:
  C1-C-4           IRREGULAR    0          0          0          0          1

  
  ERROR 209: undefined object 0 at line 541 of [XSECT] section:
  C1-C-5           IRREGULAR    0          0          0          0          1

  
  ERROR 209: undefined object 0 at line 542 of [XSECT] section:
  C1-C-11          IRREGULAR    0          0          0          0          1

  
  ERROR 209: undefined object 0 at line 543 of [XSECT] section:
  C1-C-12          IRREGULAR    0          0          0          0          1

  
  ERROR 209: undefined object 0 at line 544 of [XSECT] section:
  C1-C-13          IRREGULAR    0          0          0          0          1

  
  ERROR 209: undefined object 0 at line 545 of [XSECT] section:
  T-C1N1S338       IRREGULAR    0          5453.00    0          0          1

  
  ERROR 209: undefined object 0 at line 546 of [XSECT] section:
  T-C1S1S338       IRREGULAR    0          5432.00    0          0          1

  
  ERROR 209: undefined object 0 at line 547 of [XSECT] section:
  T-C1N2-C11       IRREGULAR    0          5991.00    0          0          1

  
  ERROR 209: undefined object 0 at line 548 of [XSECT] section:
  T-C1S2-C11       IRREGULAR    0          5468.00    0          0          1

  
  ERROR 209: undefined object 0 at line 549 of [XSECT] section:
  T-C1N3-C12       IRREGULAR    0          4685.00    0          0          1

  
  ERROR 209: undefined object 0 at line 550 of [XSECT] section:
  T-C1N4-C13       IRREGULAR    0          1749.00    0          0          1

  
  ERROR 209: undefined object 0 at line 551 of [XSECT] section:
  T-C1N5-B3        IRREGULAR    0          7431.00    0          0          1

  
  ERROR 209: undefined object 0 at line 552 of [XSECT] section:
  T-C1S3-B3        IRREGULAR    0          13816.00   0          0          1

  
  ERROR 209: undefined object 0 at line 553 of [XSECT] section:
  TC1S4-C1-4       IRREGULAR    0          3303.00    0          0          1

  
  ERROR 209: undefined object 0 at line 554 of [XSECT] section:
  T-C1S5-U1        IRREGULAR    0          7595.00    0          0          1

  
  ERROR 209: undefined object 0 at line 555 of [XSECT] section:
  T-C1S6-B7        IRREGULAR    0          5330.00    0          0          1

  
  ERROR 209: undefined object 0 at line 556 of [XSECT] section:
  C1-C-14          IRREGULAR    0          0          0          0          1

  
  ERROR 209: undefined object 0 at line 557 of [XSECT] section:
  C1-C-15          IRREGULAR    0          0          0          0          1

  
  ERROR 209: undefined object 0 at line 558 of [XSECT] section:
  C1-C-16          IRREGULAR    0          0          0          0          1

  
  ERROR 209: undefined object 0 at line 559 of [XSECT] section:
  T-C1N8-B10       IRREGULAR    0          6814.00    0          0          1

  
  ERROR 209: undefined object 0 at line 560 of [XSECT] section:
  T-C1S8-B10       IRREGULAR    0          6814.00    0          0          1

  
  ERROR 209: undefined object 0 at line 561 of [XSECT] section:
  T-ZOO-B8         IRREGULAR    0          2342.00    0          0          1

  
  ERROR 209: undefined object 0 at line 562 of [XSECT] section:
  C1-C-17          IRREGULAR    0          0          0          0          1

  
  ERROR 209: undefined object 0 at line 563 of [XSECT] section:
  T-C1-9-B11       IRREGULAR    0          9987.00    0          0          1

  
  ERROR 209: undefined object 0 at line 564 of [XSECT] section:
  T-C1S9-B11       IRREGULAR    0          3289.00    0          0          1

  
  ERROR 209: undefined object 0 at line 565 of [XSECT] section:
  L31-C-7          IRREGULAR    0          0          0          0          1

  
  ERROR 209: undefined object 0 at line 566 of [XSECT] section:
  L31-C-8          IRREGULAR    0          0          0          0          1

  
  ERROR 209: undefined object 0 at line 570 of [XSECT] section:
  C1-C-18          IRREGULAR    0          0          0          0          1

  
  ERROR 209: undefined object 0 at line 571 of [XSECT] section:
  C1-C-19          IRREGULAR    0          0          0          0          1

  
  ERROR 209: undefined object 0 at line 573 of [XSECT] section:
  C1-C-20          IRREGULAR    0          0          0          0          1

  
  ERROR 209: undefined object 0 at line 574 of [XSECT] section:
  C1-C-21          IRREGULAR    0          0          0          0          1

  
  ERROR 209: undefined object 0 at line 575 of [XSECT] section:
  C1-C-22          IRREGULAR    0          0          0          0          1

  
  ERROR 209: undefined object 0 at line 576 of [XSECT] section:
  C1-C-23          IRREGULAR    0          0          0          0          1

  
  ERROR 209: undefined object 0 at line 577 of [XSECT] section:
  C1-C-24          IRREGULAR    0          0          0          0          1

  
  ERROR 209: undefined object 0 at line 578 of [XSECT] section:
  C1-C-25          IRREGULAR    0          0          0          0          1

  
  ERROR 209: undefined object 0 at line 579 of [XSECT] section:
  C1-C-26          IRREGULAR    0          0          0          0          1

  
  ERROR 209: undefined object 0 at line 580 of [XSECT] section:
  C1-C-27          IRREGULAR    0          0          0          0          1

  
  ERROR 209: undefined object 0 at line 581 of [XSECT] section:
  S21              IRREGULAR    0          0          0          0          1

  
  ERROR 209: undefined object 0 at line 582 of [XSECT] section:
  B1               IRREGULAR    0          0          0          0          1

  
  ERROR 209: undefined object 0 at line 583 of [XSECT] section:
  B2               IRREGULAR    0          0          0          0          1

  
  ERROR 209: undefined object 0 at line 584 of [XSECT] section:
  B3               IRREGULAR    0          0          0          0          1

  
  ERROR 209: undefined object 0 at line 585 of [XSECT] section:
  B4               IRREGULAR    0          0          0          0          1

  
  ERROR 209: undefined object 0 at line 586 of [XSECT] section:
  B5               IRREGULAR    0          0          0          0          1

  
  ERROR 209: undefined object 0 at line 588 of [XSECT] section:
  B6               IRREGULAR    0          0          0          0          1

  
  ERROR 209: undefined object 0 at line 589 of [XSECT] section:
  B7               IRREGULAR    0          0          0          0          1

  
  ERROR 209: undefined object 0 at line 590 of [XSECT] section:
  B8               IRREGULAR    0          0          0          0          1

  
  ERROR 209: undefined object 0 at line 591 of [XSECT] section:
  B9               IRREGULAR    0          0          0          0          1

  
  ERROR 209: undefined object 0 at line 592 of [XSECT] section:
  B10              IRREGULAR    0          0          0          0          1

  
  ERROR 209: undefined object 0 at line 593 of [XSECT] section:
  B11              IRREGULAR    0          0          0          0          1

  
  ERROR 209: undefined object 0 at line 594 of [XSECT] section:
  B12              IRREGULAR    0          0          0          0          1

  
  ERROR 209: undefined object 0 at line 595 of [XSECT] section:
  B14              IRREGULAR    0          0          0          0          1

  
  ERROR 209: undefined object 0 at line 596 of [XSECT] section:
  B13              IRREGULAR    0          0          0          0          1

  
  ERROR 209: undefined object 0 at line 597 of [XSECT] section:
  B15              IRREGULAR    0          0          0          0          1

  
  ERROR 209: undefined object 0 at line 598 of [XSECT] section:
  B16              IRREGULAR    0          0          0          0          1

  
  ERROR 209: undefined object 0 at line 599 of [XSECT] section:
  B17              IRREGULAR    0          0          0          0          1

  
  ERROR 209: undefined object 0 at line 600 of [XSECT] section:
  C1N-C-15         IRREGULAR    0          0          0          0          1

  
  ERROR 209: undefined object 0 at line 601 of [XSECT] section:
  B21              IRREGULAR    0          0          0          0          1

  
  ERROR 209: undefined object 0 at line 602 of [XSECT] section:
  B20              IRREGULAR    0          0          0          0          1

  
  ERROR 209: undefined object 0 at line 603 of [XSECT] section:
  C1N-C-14         IRREGULAR    0          0          0          0          1

  
  ERROR 209: undefined object 0 at line 604 of [XSECT] section:
  C1N-C-13         IRREGULAR    0          0          0          0          1

  
  ERROR 209: undefined object 0 at line 605 of [XSECT] section:
  C1N-C-12         IRREGULAR    0          0          0          0          1

  
  ERROR 209: undefined object 0 at line 606 of [XSECT] section:
  B19              IRREGULAR    0          0          0          0          1

  
  ERROR 209: undefined object 0 at line 607 of [XSECT] section:
  B18              IRREGULAR    0          0          0          0          1

  
  ERROR 209: undefined object 0 at line 608 of [XSECT] section:
  C1N-C-11         IRREGULAR    0          0          0          0          1

  
  ERROR 209: undefined object 0 at line 609 of [XSECT] section:
  C1N-C-10         IRREGULAR    0          0          0          0          1

  
  ERROR 209: undefined object 0 at line 610 of [XSECT] section:
  C1N-C-9          IRREGULAR    0          0          0          0          1

  
  ERROR 209: undefined object 0 at line 613 of [XSECT] section:
  C1N-C-8          IRREGULAR    0          0          0          0          1

  
  ERROR 209: undefined object 0 at line 615 of [XSECT] section:
  C1N-C-7          IRREGULAR    0          0          0          0          1

  
  ERROR 209: undefined object 0 at line 617 of [XSECT] section:
  C1N-C-6          IRREGULAR    0          0          0          0          1

  
  ERROR 209: undefined object 0 at line 619 of [XSECT] section:
  C1N-C-5          IRREGULAR    0          0          0          0          1

  
  ERROR 209: undefined object 0 at line 621 of [XSECT] section:
  C1N-C-4          IRREGULAR    0          0          0          0          1

  
  ERROR 209: undefined object 0 at line 623 of [XSECT] section:
  C1N-C-3          IRREGULAR    0          0          0          0          1

  
  ERROR 209: undefined object 0 at line 625 of [XSECT] section:
  C1N-C-2          IRREGULAR    0          0          0          0          1

  
  ERROR 209: undefined object 0 at line 626 of [XSECT] section:
  B22              IRREGULAR    0          0          0          0          1

  
  ERROR 209: undefined object 0 at line 627 of [XSECT] section:
  C1N-C-19         IRREGULAR    0          0          0          0          1

  
  ERROR 209: undefined object 0 at line 629 of [XSECT] section:
  N-C1-C-4         IRREGULAR    0          0          0          0          1

  
  ERROR 209: undefined object 0 at line 630 of [XSECT] section:
  N-C1-C-3         IRREGULAR    0          0          0          0          1

  
  ERROR 209: undefined object 0 at line 631 of [XSECT] section:
  N-C1-C-2         IRREGULAR    0          0          0          0          1

  
  Maximum error count exceeded.

  Analysis begun on:  Sat Mar  7 21:51:22 2026
  Analysis ended on:  Sat Mar  7 21:51:22 2026
  Total elapsed time: < 1 sec