
  EPA STORM WATER MANAGEMENT MODEL - VERSION 5.2 (Build 5.2.4)
  ------------------------------------------------------------

  
  ERROR 211: invalid number  at line 58 of [XSECT] section:
  WEIR             RECT_CLOSED  9.50       0          0          0          

  
  ERROR 211: invalid number  at line 59 of [XSECT] section:
  ORIFICE          RECT_CLOSED  9.50       0          0          0          


  Analysis begun on:  Sat Mar  7 21:51:34 2026
  Analysis ended on:  Sat Mar  7 21:51:34 2026
  Total elapsed time: < 1 sec