
  EPA STORM WATER MANAGEMENT MODEL - VERSION 5.2 (Build 5.2.4)
  ------------------------------------------------------------

  
  ERROR 209: undefined object ? at line 42 of [CONDUIT] section:
  211              ?                ?                2000.00    0.0110     95.00      94.00      0          0

  
  ERROR 211: invalid number  at line 55 of [XSECT] section:
  REACT            RECT_OPEN    0          50.00      0          0          


  Analysis begun on:  Sat Mar  7 21:51:33 2026
  Analysis ended on:  Sat Mar  7 21:51:33 2026
  Total elapsed time: < 1 sec