
  EPA STORM WATER MANAGEMENT MODEL - VERSION 5.2 (Build 5.2.4)
  ------------------------------------------------------------

  
  ERROR 211: invalid number  at line 101 of [XSECT] section:
  242.1            RECT_OPEN    0          10.00      0          0          

  
  ERROR 211: invalid number  at line 102 of [XSECT] section:
  272.1            RECT_OPEN    0          10.00      0          0          


  Analysis begun on:  Sat Mar  7 21:51:26 2026
  Analysis ended on:  Sat Mar  7 21:51:26 2026
  Total elapsed time: < 1 sec