
  EPA STORM WATER MANAGEMENT MODEL - VERSION 5.2 (Build 5.2.4)
  ------------------------------------------------------------

  
  ERROR 209: undefined object ? at line 46 of [CONDUIT] section:
  346              ?                ?                5.00       0.0010     274.66     274.66     0          0

  
  ERROR 209: undefined object ? at line 47 of [CONDUIT] section:
  347              ?                ?                5.00       0.0010     277.94     277.94     0          0

  
  ERROR 209: undefined object ? at line 53 of [WEIR] section:
  349              ?                ?                TRANSVERSE 287.99     1.840      NO       0        0          YES

  
  ERROR 211: invalid number  at line 67 of [XSECT] section:
  349              RECT_OPEN    0          6.00       0          0          


  Analysis begun on:  Sat Mar  7 21:51:27 2026
  Analysis ended on:  Sat Mar  7 21:51:27 2026
  Total elapsed time: < 1 sec