
  EPA STORM WATER MANAGEMENT MODEL - VERSION 5.2 (Build 5.2.4)
  ------------------------------------------------------------

  
  ERROR 209: undefined object ? at line 35 of [CONDUIT] section:
  203              ?                ?                100.00     0.0140     571.70     570.70     0          0

  
  ERROR 209: undefined object ? at line 36 of [CONDUIT] section:
  211              ?                ?                50.00      0.0140     570.70     570.00     0          0

  
  ERROR 209: undefined object ? at line 41 of [ORIFICE] section:
  209              ?                ?                SIDE       0          0.650      NO       0

  
  ERROR 209: undefined object ? at line 46 of [WEIR] section:
  208              ?                ?                TRANSVERSE 574.37     1.840      NO       0        0          YES

  
  ERROR 211: invalid number  at line 53 of [XSECT] section:
  209              RECT_CLOSED  1.00       0          0          0          

  
  ERROR 211: invalid number  at line 54 of [XSECT] section:
  208              RECT_OPEN    0          27.00      0          0          


  Analysis begun on:  Sat Mar  7 21:51:22 2026
  Analysis ended on:  Sat Mar  7 21:51:22 2026
  Total elapsed time: < 1 sec