
  EPA STORM WATER MANAGEMENT MODEL - VERSION 5.2 (Build 5.2.4)
  ------------------------------------------------------------

  
  ERROR 207: duplicate ID name 295.1 at line 92 of [WEIR] section:
  295.1            75               82               TRANSVERSE 7.30       1.840      NO       0        0          YES

  
  ERROR 207: duplicate ID name 295.1 at line 93 of [WEIR] section:
  295.1            77               85               TRANSVERSE 7.30       1.840      NO       0        0          YES

  
  ERROR 207: duplicate ID name 295.1 at line 94 of [WEIR] section:
  295.1            79               88               TRANSVERSE 7.30       1.840      NO       0        0          YES


  Analysis begun on:  Sat Mar  7 21:51:23 2026
  Analysis ended on:  Sat Mar  7 21:51:23 2026
  Total elapsed time: < 1 sec