
  EPA STORM WATER MANAGEMENT MODEL - VERSION 5.2 (Build 5.2.4)
  ------------------------------------------------------------

  
  ERROR 207: duplicate ID name POND at line 56 of [JUNC] section:
  POND             18.20      0          5.25       0          0

  
  ERROR 207: duplicate ID name 106 at line 111 of [WEIR] section:
  106              POND4            105              TRANSVERSE 10.50      1.840      NO       0        0          YES


  Analysis begun on:  Sat Mar  7 21:51:26 2026
  Analysis ended on:  Sat Mar  7 21:51:26 2026
  Total elapsed time: < 1 sec