
  EPA STORM WATER MANAGEMENT MODEL - VERSION 5.2 (Build 5.2.4)
  ------------------------------------------------------------

  
  ERROR 207: duplicate ID name 0 at line 28 of [JUNC] section:
  0                174.50     0          0          0          0

  
  ERROR 207: duplicate ID name 0 at line 29 of [JUNC] section:
  0                175.75     0          0          0          0

  
  ERROR 207: duplicate ID name 0 at line 30 of [JUNC] section:
  0                182.40     0          0          0          0

  
  ERROR 207: duplicate ID name 0 at line 31 of [JUNC] section:
  0                186.60     0          0          0          0

  
  ERROR 207: duplicate ID name 0 at line 32 of [JUNC] section:
  0                185.35     0          0          0          0

  
  ERROR 207: duplicate ID name 0 at line 33 of [JUNC] section:
  0                186.60     0          0          0          0

  
  ERROR 207: duplicate ID name 0 at line 34 of [JUNC] section:
  0                184.00     0          0          0          0

  
  ERROR 207: duplicate ID name 0 at line 35 of [JUNC] section:
  0                183.00     0          0          0          0

  
  ERROR 207: duplicate ID name 0 at line 36 of [JUNC] section:
  0                178.00     0          0          0          0

  
  ERROR 207: duplicate ID name 0 at line 37 of [JUNC] section:
  0                178.25     0          0          0          0

  
  ERROR 207: duplicate ID name 0 at line 38 of [JUNC] section:
  0                177.65     0          0          0          0

  
  ERROR 207: duplicate ID name 0 at line 39 of [JUNC] section:
  0                173.70     0          0          0          0

  
  ERROR 207: duplicate ID name 0 at line 40 of [JUNC] section:
  0                174.25     0          0          0          0

  
  ERROR 207: duplicate ID name 0 at line 41 of [JUNC] section:
  0                173.50     0          0          0          0

  
  ERROR 207: duplicate ID name 0 at line 42 of [JUNC] section:
  0                174.05     0          0          0          0

  
  ERROR 207: duplicate ID name 0 at line 43 of [JUNC] section:
  0                174.20     0          0          0          0

  
  ERROR 207: duplicate ID name 0 at line 44 of [JUNC] section:
  0                175.80     0          0          0          0

  
  ERROR 207: duplicate ID name 0 at line 45 of [JUNC] section:
  0                183.50     0          0          0          0

  
  ERROR 207: duplicate ID name 0 at line 46 of [JUNC] section:
  0                190.00     0          0          0          0

  
  ERROR 207: duplicate ID name 0 at line 47 of [JUNC] section:
  0                180.70     0          0          0          0

  
  ERROR 207: duplicate ID name 0 at line 48 of [JUNC] section:
  0                178.90     0          0          0          0

  
  ERROR 207: duplicate ID name 0 at line 49 of [JUNC] section:
  0                181.50     0          0          0          0

  
  ERROR 207: duplicate ID name 0 at line 50 of [JUNC] section:
  0                182.40     0          0          0          0

  
  ERROR 207: duplicate ID name 0 at line 51 of [JUNC] section:
  0                180.50     0          0          0          0

  
  ERROR 207: duplicate ID name 0 at line 52 of [JUNC] section:
  0                178.00     0          0          0          0

  
  ERROR 207: duplicate ID name 0 at line 53 of [JUNC] section:
  0                180.00     0          0          0          0

  
  ERROR 207: duplicate ID name 0 at line 54 of [JUNC] section:
  0                179.40     0          0          0          0

  
  ERROR 207: duplicate ID name 0 at line 55 of [JUNC] section:
  0                179.50     0          0          0          0

  
  ERROR 207: duplicate ID name 0 at line 56 of [JUNC] section:
  0                179.93     0          0          0          0

  
  ERROR 207: duplicate ID name 0 at line 57 of [JUNC] section:
  0                179.98     0          0          0          0

  
  ERROR 207: duplicate ID name 0 at line 58 of [JUNC] section:
  0                192.20     0          0          0          0

  
  ERROR 207: duplicate ID name 0 at line 59 of [JUNC] section:
  0                192.92     0          0          0          0

  
  ERROR 207: duplicate ID name 0 at line 60 of [JUNC] section:
  0                192.90     0          0          0          0

  
  ERROR 207: duplicate ID name 0 at line 61 of [JUNC] section:
  0                193.13     0          0          0          0

  
  ERROR 207: duplicate ID name 0 at line 62 of [JUNC] section:
  0                193.52     0          0          0          0

  
  ERROR 207: duplicate ID name 0 at line 63 of [JUNC] section:
  0                193.68     0          0          0          0

  
  ERROR 207: duplicate ID name 0 at line 64 of [JUNC] section:
  0                193.16     0          0          0          0

  
  ERROR 207: duplicate ID name 0 at line 65 of [JUNC] section:
  0                196.86     0          0          0          0

  
  ERROR 207: duplicate ID name 0 at line 66 of [JUNC] section:
  0                193.88     0          0          0          0

  
  ERROR 207: duplicate ID name 0 at line 67 of [JUNC] section:
  0                193.76     0          0          0          0

  
  ERROR 207: duplicate ID name 0 at line 68 of [JUNC] section:
  0                193.88     0          0          0          0

  
  ERROR 207: duplicate ID name 0 at line 69 of [JUNC] section:
  0                193.76     0          0          0          0

  
  ERROR 207: duplicate ID name 0 at line 70 of [JUNC] section:
  0                191.92     0          0          0          0

  
  ERROR 207: duplicate ID name 0 at line 71 of [JUNC] section:
  0                192.20     0          0          0          0

  
  ERROR 207: duplicate ID name 0 at line 72 of [JUNC] section:
  0                192.40     0          0          0          0

  
  ERROR 207: duplicate ID name 0 at line 73 of [JUNC] section:
  0                192.40     0          0          0          0

  
  ERROR 207: duplicate ID name 0 at line 74 of [JUNC] section:
  0                190.95     0          0          0          0

  
  ERROR 207: duplicate ID name 0 at line 75 of [JUNC] section:
  0                185.27     0          0          0          0

  
  ERROR 207: duplicate ID name 0 at line 76 of [JUNC] section:
  0                185.60     0          0          0          0

  
  ERROR 207: duplicate ID name 0 at line 77 of [JUNC] section:
  0                185.67     0          0          0          0

  
  ERROR 207: duplicate ID name 0 at line 78 of [JUNC] section:
  0                185.60     0          0          0          0

  
  ERROR 207: duplicate ID name 0 at line 79 of [JUNC] section:
  0                185.60     0          0          0          0

  
  ERROR 207: duplicate ID name 0 at line 80 of [JUNC] section:
  0                190.95     0          0          0          0

  
  ERROR 207: duplicate ID name 0 at line 81 of [JUNC] section:
  0                187.07     0          0          0          0

  
  ERROR 207: duplicate ID name 0 at line 82 of [JUNC] section:
  0                188.30     0          0          0          0

  
  ERROR 207: duplicate ID name 0 at line 83 of [JUNC] section:
  0                178.00     0          0          0          0

  
  ERROR 207: duplicate ID name 0 at line 84 of [JUNC] section:
  0                192.40     0          0          0          0

  
  ERROR 207: duplicate ID name 0 at line 85 of [JUNC] section:
  0                193.52     0          0          0          0

  
  ERROR 207: duplicate ID name 0 at line 86 of [JUNC] section:
  0                193.63     0          0          0          0

  
  ERROR 207: duplicate ID name 0 at line 91 of [STORAGE] section:
  0                178.00     0          0          FUNCTIONAL 7187430.00 0          0

  
  ERROR 207: duplicate ID name 335 at line 140 of [CONDUIT] section:
  335              0                0                355.00     0.0130     174.80     174.37     0          0


  Analysis begun on:  Sat Mar  7 21:51:29 2026
  Analysis ended on:  Sat Mar  7 21:51:29 2026
  Total elapsed time: < 1 sec