
  EPA STORM WATER MANAGEMENT MODEL - VERSION 5.2 (Build 5.2.4)
  ------------------------------------------------------------

  
  ERROR 209: undefined object ? at line 862 of [CONDUIT] section:
  450-old          ?                J3397            1703.00    0.0120     5.00       5.00       0          0

  
  ERROR 209: undefined object ? at line 863 of [CONDUIT] section:
  448-old          ?                J2322            0          0          0          0          0          0

  
  ERROR 209: undefined object Node_1350 at line 881 of [CONDUIT] section:
  1350             Node_1350        Node_2447247     0          0          0          0          0          0

  
  ERROR 209: undefined object Node_2421 at line 900 of [CONDUIT] section:
  2421             Node_2421        Node_1986271     0          0          0          0          0          0

  
  ERROR 209: undefined object Node_1422 at line 905 of [CONDUIT] section:
  1422             Node_1422        Node_2313269     0          0          0          0          0          0

  
  ERROR 209: undefined object Node_1471 at line 927 of [CONDUIT] section:
  1471             Node_1471        Node_2331311     0          0          0          0          0          0

  
  ERROR 209: undefined object Node_3499 at line 943 of [CONDUIT] section:
  3499             Node_3499        Node_2060331     0          0          0          0          0          0

  
  ERROR 209: undefined object ? at line 944 of [CONDUIT] section:
  466-B            ?                J488             0          0          0          0          0          0

  
  ERROR 209: undefined object ? at line 945 of [CONDUIT] section:
  466-A            ?                J488             0          0          0          0          0          0

  
  ERROR 209: undefined object Node_1426 at line 946 of [CONDUIT] section:
  1426             Node_1426        Node_2333337     0          0          0          0          0          0

  
  ERROR 209: undefined object Node_1492 at line 951 of [CONDUIT] section:
  1492             Node_1492        Node_2339344     0          0          0          0          0          0

  
  ERROR 209: undefined object ? at line 983 of [CONDUIT] section:
  324X             ?                S468             164.00     0.0120     5.00       5.00       0          0

  
  ERROR 209: undefined object Node_3321 at line 989 of [CONDUIT] section:
  3321             Node_3321        Node_2325402     0          0          0          0          0          0

  
  ERROR 209: undefined object ? at line 990 of [CONDUIT] section:
  2321             ?                2121             0          0          0          0          0          0

  
  ERROR 209: undefined object ? at line 994 of [CONDUIT] section:
  324-A            ?                S468             0          0          0          0          0          0

  
  ERROR 209: undefined object Node_1425 at line 1005 of [CONDUIT] section:
  1425             Node_1425        Node_1723420     0          0          0          0          0          0

  
  ERROR 209: undefined object Node_1396 at line 1008 of [CONDUIT] section:
  1396             Node_1396        Node_2323420     0          0          0          0          0          0

  
  ERROR 209: undefined object Node_3418 at line 1032 of [CONDUIT] section:
  3418.1           Node_3418        Node_1932460     137.00     0.0140     5.00       5.00       0          0

  
  ERROR 209: undefined object 488-12" at line 1034 of [CONDUIT] section:
  488-8"           488-12"          J2386            0          0          0          0          0          0

  
  ERROR 209: undefined object Node_1386 at line 1035 of [CONDUIT] section:
  1386             Node_1386        Node_2300467     2436.00    0.0140     5.00       5.00       0          0

  
  ERROR 209: undefined object Node_1348 at line 1039 of [CONDUIT] section:
  1348             Node_1348        Node_2271474     5170.00    0.0140     5.00       5.00       0          0

  
  ERROR 209: undefined object 2307-48" at line 1041 of [CONDUIT] section:
  2307-30"         2307-48"         2307-com         6696.00    0.0140     5.00       5.00       0          0

  
  ERROR 209: undefined object 3307-48" at line 1042 of [CONDUIT] section:
  3307-42"         3307-48"         3307-com         5055.00    0.0140     5.00       5.00       0          0

  
  ERROR 209: undefined object Node_5414 at line 1043 of [CONDUIT] section:
  5414             Node_5414        Node_20351714    3693.00    0.0140     5.00       5.00       0          0

  
  ERROR 209: undefined object 1310-48" at line 1044 of [CONDUIT] section:
  1310-72"         1310-48"         Node_1681478     3044.00    0.0140     5.00       5.00       0          0

  
  ERROR 209: undefined object Node_3310 at line 1054 of [CONDUIT] section:
  3310             Node_3310        Node_2457871     4787.00    0.0140     5.00       5.00       0          0

  
  ERROR 209: undefined object Node_2414 at line 1062 of [CONDUIT] section:
  2414             Node_2414        Node_1932463     960.00     0.0140     5.00       5.00       0          0

  
  ERROR 209: undefined object 3414-30" at line 1063 of [CONDUIT] section:
  3414-24"         3414-30"         M5-AC2           1400.00    0.0120     5.00       5.00       0          0

  
  ERROR 209: undefined object ? at line 1072 of [CONDUIT] section:
  2310             ?                2110             2846.00    0.0140     5.00       5.00       0          0

  
  ERROR 209: undefined object 2319-16" at line 1080 of [CONDUIT] section:
  2319-30"         2319-16"         M3-AC2           4917.00    0.0140     5.00       5.00       0          0

  
  ERROR 209: undefined object 1319-12 at line 1104 of [CONDUIT] section:
  1319-8           1319-12          J2319-P          1720.00    0.0120     5.00       5.00       0          0

  
  ERROR 209: undefined object Node_3319 at line 1107 of [CONDUIT] section:
  3319             Node_3319        Node_1949522     0          0          0          0          0          0

  
  ERROR 209: undefined object 3387-42" at line 1111 of [CONDUIT] section:
  3387-48"         3387-42"         3387-5.3         1405.00    0.0120     5.00       5.00       0          0

  
  ERROR 209: undefined object Node_3304 at line 1129 of [CONDUIT] section:
  3304             Node_3304        Node_1808588     1678.00    0.0140     5.00       5.00       0          0

  
  ERROR 209: undefined object Node_3388 at line 1144 of [CONDUIT] section:
  3338             Node_3388        Node_1953610     403.00     0.0120     10.00      5.00       0          0

  
  ERROR 209: undefined object Node_2330 at line 1149 of [CONDUIT] section:
  2330             Node_2330        Node_2295620     0          0          0          0          0          0

  
  ERROR 209: undefined object Node_2433 at line 1153 of [CONDUIT] section:
  2433             Node_2433        Node_2288627     0          0          0          0          0          0

  
  ERROR 209: undefined object 5487 at line 1157 of [CONDUIT] section:
  5487             5487 ll          Node_1957619     0          0          0          0          0          0

  
  ERROR 209: undefined object 2339 at line 1160 of [CONDUIT] section:
  2339             2339 ll          J3339            0          0          0          0          0          0

  
  ERROR 209: undefined object Node_10461 at line 1190 of [CONDUIT] section:
  10461            Node_10461       Node_2259681     0          0          0          0          0          0

  
  ERROR 209: undefined object G2354 at line 1206 of [CONDUIT] section:
  2354             G2354            Node_20561878    1839.00    0.0120     5.00       5.00       0          0

  
  ERROR 209: undefined object Node_2357 at line 1216 of [CONDUIT] section:
  G2357            Node_2357        Node_20391881    600.00     0.0140     1.02       -0.78      0          0

  
  ERROR 209: undefined object Node_10361 at line 1228 of [CONDUIT] section:
  10361            Node_10361       Node_22581885    0          0          0          0          0          0

  
  ERROR 209: undefined object Node_2463 at line 1243 of [CONDUIT] section:
  2463             Node_2463        Node_2280844     0          0          0          0          0          0

  
  ERROR 209: undefined object ? at line 1245 of [CONDUIT] section:
  383              ?                S343             0          0          0          0          0          0

  
  ERROR 209: undefined object Node_3383 at line 1258 of [CONDUIT] section:
  G3383            Node_3383        Node_1820864     1731.00    0.0140     4.18       0.71       0          0

  
  ERROR 209: undefined object ? at line 1280 of [CONDUIT] section:
  2331             ?                2131             0          0          0          0          0          0

  
  ERROR 209: undefined object ? at line 1286 of [CONDUIT] section:
  393              ?                S324             0          0          0          0          0          0

  
  ERROR 209: undefined object Node_2393 at line 1287 of [CONDUIT] section:
  G2393            Node_2393        Node_16511652    880.00     0.0140     5.00       2.36       0          0

  
  ERROR 209: undefined object ? at line 1288 of [CONDUIT] section:
  392              ?                S480             0          0          0          0          0          0

  
  ERROR 209: undefined object Node_2320 at line 1290 of [CONDUIT] section:
  2320             Node_2320        Node_2327380     0          0          0          0          0          0

  
  ERROR 209: undefined object Node_3477 at line 1291 of [CONDUIT] section:
  3477             Node_3477        Node_16782280    0          0          0          0          0          0

  
  ERROR 209: undefined object Node_4345 at line 1292 of [CONDUIT] section:
  4345             Node_4345        Node_16841680    0          0          0          0          0          0

  
  ERROR 209: undefined object Node_5436 at line 1293 of [CONDUIT] section:
  5436             Node_5436        Node_1686511     0          0          0          0          0          0

  
  ERROR 209: undefined object Node_2336 at line 1295 of [CONDUIT] section:
  2336             Node_2336        Node_1936643     0          0          0          0          0          0

  
  ERROR 209: undefined object ? at line 1296 of [CONDUIT] section:
  3447             ?                350-1            1618.00    0.0120     5.00       5.00       0          0

  
  ERROR 209: undefined object Node_3318 at line 1297 of [CONDUIT] section:
  3318             Node_3318        Node_1939231     0          0          0          0          0          0

  
  ERROR 209: undefined object ? at line 1298 of [CONDUIT] section:
  447              ?                J322             0          0          0          0          0          0

  
  ERROR 209: undefined object Node_1447 at line 1299 of [CONDUIT] section:
  1447             Node_1447        Node_17121706    0          0          0          0          0          0

  
  ERROR 209: undefined object Node_1318 at line 1300 of [CONDUIT] section:
  1318             Node_1318        Node_17131939    0          0          0          0          0          0

  
  ERROR 209: undefined object Node_1318 at line 1301 of [CONDUIT] section:
  1318.1           Node_1318        Node_17131712    0          0          0          0          0          0

  
  ERROR 209: undefined object Node_2434 at line 1303 of [CONDUIT] section:
  2434             Node_2434        Node_17201714    0          0          0          0          0          0

  
  ERROR 209: undefined object Node_3434 at line 1304 of [CONDUIT] section:
  3434             Node_3434        Node_17141715    0          0          0          0          0          0

  
  ERROR 209: undefined object Node_1509 at line 1305 of [CONDUIT] section:
  3462             Node_1509        Node_17151716    7000.00    0.0120     5.00       5.00       0          0

  
  ERROR 209: undefined object Node_3323 at line 1306 of [CONDUIT] section:
  3323             Node_3323        Node_17161684    0          0          0          0          0          0

  
  ERROR 209: undefined object Node_1362 at line 1311 of [CONDUIT] section:
  1362             Node_1362        Node_17461878    2150.00    0.0140     5.00       0.81       0          0

  
  ERROR 209: undefined object 1383-12" at line 1312 of [CONDUIT] section:
  1383-6"          1383-12"         Node_1748856     50.00      0.0120     13.00      13.00      0          0

  
  ERROR 209: undefined object Node_1450 at line 1314 of [CONDUIT] section:
  1450             Node_1450        Node_2436231     0          0          0          0          0          0

  
  ERROR 209: undefined object ? at line 1315 of [CONDUIT] section:
  450.1            ?                J3397            0          0          0          0          0          0

  
  ERROR 209: undefined object Node_4366 at line 1316 of [CONDUIT] section:
  4366             Node_4366        Node_1804658     50.00      0.0120     9.00       9.00       0          0

  
  ERROR 209: undefined object 2383-12" at line 1318 of [CONDUIT] section:
  2383-6"          2383-12"         JX3383           600.00     0.0140     5.00       5.00       0          0

  
  ERROR 209: undefined object ? at line 1319 of [CONDUIT] section:
  PL2325           ?                2125             442.00     0.0110     0.32       -0.37      0          0

  
  ERROR 209: undefined object Node_3039 at line 1320 of [CONDUIT] section:
  PK3039           Node_3039        Node_1898748     1100.00    0.0110     -5.20      -6.86      0          0

  
  ERROR 209: undefined object ? at line 1321 of [CONDUIT] section:
  PL2323           ?                2123             388.00     0.0110     -0.37      -0.78      0          0

  
  ERROR 209: undefined object Node_2322 at line 1322 of [CONDUIT] section:
  PL2322           Node_2322        Node_18811882    500.00     0.0110     -0.78      -1.28      0          0

  
  ERROR 209: undefined object Node_2319 at line 1323 of [CONDUIT] section:
  PL2319           Node_2319        Node_18821883    468.00     0.0110     -1.28      -1.33      0          0

  
  ERROR 209: undefined object ? at line 1324 of [CONDUIT] section:
  PK2317           ?                J450a            462.00     0.0110     -1.33      -1.36      0          0

  
  ERROR 209: undefined object Node_2316 at line 1325 of [CONDUIT] section:
  PL2316           Node_2316        Node_18841885    462.00     0.0110     -1.36      -1.83      0          0

  
  ERROR 209: undefined object Node_2097 at line 1326 of [CONDUIT] section:
  PK2097           Node_2097        Node_18851886    440.00     0.0110     -1.83      -2.43      0          0

  
  ERROR 209: undefined object Node_2096 at line 1327 of [CONDUIT] section:
  PK2096           Node_2096        Node_18861887    442.00     0.0110     -2.43      -2.47      0          0

  
  ERROR 209: undefined object Node_3090 at line 1328 of [CONDUIT] section:
  PK3090           Node_3090        Node_18871888    441.00     0.0110     -2.47      -2.74      0          0

  
  ERROR 209: undefined object Node_3089 at line 1329 of [CONDUIT] section:
  PK3089           Node_3089        Node_18881889    196.00     0.0110     -2.74      -3.48      0          0

  
  ERROR 209: undefined object Node_3088 at line 1330 of [CONDUIT] section:
  PK3088           Node_3088        Node_18891890    217.00     0.0110     -3.48      -3.63      0          0

  
  ERROR 209: undefined object Node_3063 at line 1331 of [CONDUIT] section:
  PK3063           Node_3063        Node_18901891    378.00     0.0110     -3.63      -3.94      0          0

  
  ERROR 209: undefined object Node_3061 at line 1332 of [CONDUIT] section:
  PK3061           Node_3061        Node_18911892    383.00     0.0110     -3.94      -3.95      0          0

  
  ERROR 209: undefined object Node_3047 at line 1333 of [CONDUIT] section:
  PK3047           Node_3047        Node_18921893    178.00     0.0110     -3.95      -3.98      0          0

  
  ERROR 209: undefined object Node_3045 at line 1334 of [CONDUIT] section:
  PK3045           Node_3045        Node_18931894    305.00     0.0110     -3.98      -4.09      0          0

  
  ERROR 209: undefined object Node_3044 at line 1335 of [CONDUIT] section:
  PK3044           Node_3044        Node_18941895    495.00     0.0110     -4.09      -5.18      0          0

  
  ERROR 209: undefined object Node_3043 at line 1336 of [CONDUIT] section:
  PK3043           Node_3043        Node_18951896    365.00     0.0110     -4.90      -5.10      0          0

  
  ERROR 209: undefined object Node_3041 at line 1337 of [CONDUIT] section:
  PK3041           Node_3041        Node_18961897    115.00     0.0110     -5.10      -5.15      0          0

  
  ERROR 209: undefined object Node_3040 at line 1338 of [CONDUIT] section:
  PK3040           Node_3040        Node_18971898    67.00      0.0110     -5.15      -5.20      0          0

  
  ERROR 209: undefined object ? at line 1339 of [CONDUIT] section:
  M6-AC36          ?                Node_19321933    455.00     0.0140     5.00       5.00       0          0

  
  ERROR 209: undefined object ? at line 1340 of [CONDUIT] section:
  M4-AC6           ?                Node_19351936    60.00      0.0120     10.00      10.00      0          0

  
  ERROR 209: undefined object ? at line 1341 of [CONDUIT] section:
  F1-AC24          ?                Node_19381939    231.00     0.0120     10.75      10.75      0          0

  
  ERROR 209: undefined object ? at line 1342 of [CONDUIT] section:
  K1-AC12          ?                Node_19411942    112.00     0.0120     8.50       8.50       0          0

  
  ERROR 209: undefined object Node_3371 at line 1344 of [CONDUIT] section:
  3371             Node_3371        Node_1942646     0          0          0          0          0          0

  
  ERROR 209: undefined object ? at line 1345 of [CONDUIT] section:
  M3-AC24          ?                Node_19481949    0          0          0          0          0          0

  
  ERROR 209: undefined object ? at line 1347 of [CONDUIT] section:
  N4-AC6           ?                Node_19531954    125.00     0.0120     10.00      10.00      0          0

  
  ERROR 209: undefined object ? at line 1348 of [CONDUIT] section:
  P5-AC12          ?                Node_19561957    49.00      0.0120     9.80       9.80       0          0

  
  ERROR 209: undefined object ? at line 1349 of [CONDUIT] section:
  D2-AC16          ?                Node_19591960    0          0          0          0          0          0

  
  Maximum error count exceeded.

  Analysis begun on:  Sat Mar  7 21:51:29 2026
  Analysis ended on:  Sat Mar  7 21:51:29 2026
  Total elapsed time: < 1 sec