
  EPA STORM WATER MANAGEMENT MODEL - VERSION 5.2 (Build 5.2.4)
  ------------------------------------------------------------

  
  ERROR 207: duplicate ID name node at line 25 of [JUNC] section:
  node             44.00      0          0          0          0


  Analysis begun on:  Sat Mar  7 21:51:25 2026
  Analysis ended on:  Sat Mar  7 21:51:25 2026
  Total elapsed time: < 1 sec