
  EPA STORM WATER MANAGEMENT MODEL - VERSION 5.2 (Build 5.2.4)
  ------------------------------------------------------------

  
  ERROR 209: undefined object ED880 at line 135 of [CONDUIT] section:
  ED880R           ED880            370              0          0          12.90      12.90      0          0

  
  ERROR 209: undefined object ED370 at line 136 of [CONDUIT] section:
  ED370R           ED370            ED370P           0          0          11.80      11.80      0          0

  
  ERROR 209: undefined object ED350 at line 137 of [CONDUIT] section:
  ED350R           ED350            ED350P           0          0          10.60      10.80      0          0

  
  ERROR 209: undefined object ED330 at line 138 of [CONDUIT] section:
  ED330R           ED330            320              0          0          10.80      10.70      0          0

  
  ERROR 209: undefined object ED310 at line 139 of [CONDUIT] section:
  ED310R           ED310            300              0          0          9.80       9.50       0          0

  
  ERROR 209: undefined object ED290 at line 140 of [CONDUIT] section:
  ED290R           ED290            280              0          0          9.50       9.50       0          0

  
  ERROR 209: undefined object ED270 at line 141 of [CONDUIT] section:
  ED270R           ED270            260              0          0          7.50       7.50       0          0

  
  ERROR 209: undefined object ED240 at line 142 of [CONDUIT] section:
  ED240R           ED240            230              0          0          11.00      11.73      0          0

  
  ERROR 209: undefined object ED220 at line 143 of [CONDUIT] section:
  ED220R           ED220            210              0          0          12.70      14.00      0          0

  
  ERROR 209: undefined object ED200 at line 144 of [CONDUIT] section:
  ED200R           ED200            190              0          0          17.60      18.60      0          0

  
  ERROR 209: undefined object ED170 at line 145 of [CONDUIT] section:
  ED170R           ED170            160              0          0          15.20      15.00      0          0

  
  ERROR 209: undefined object ED150 at line 146 of [CONDUIT] section:
  ED150R           ED150            140              0          0          14.30      14.30      0          0

  
  ERROR 209: undefined object ED130 at line 147 of [CONDUIT] section:
  ED130R           ED130            ED130P           0          0          16.10      16.10      0          0

  
  ERROR 209: undefined object ED110 at line 148 of [CONDUIT] section:
  ED110R           ED110            ED110P           0          0          11.40      11.13      0          0

  
  ERROR 209: undefined object ED80 at line 149 of [CONDUIT] section:
  ED80R            ED80             70               0          0          4.43       4.43       0          0

  
  ERROR 209: undefined object ED60 at line 150 of [CONDUIT] section:
  ED60R            ED60             50               0          0          4.43       4.55       0          0

  
  ERROR 209: undefined object ED45 at line 151 of [CONDUIT] section:
  ED45R            ED45             40               0          0          4.55       7.05       0          0

  
  ERROR 209: undefined object ED30 at line 152 of [CONDUIT] section:
  ED30R            ED30             20               0          0          12.05      12.20      0          0

  
  ERROR 209: undefined object MS960R at line 174 of [CONDUIT] section:
  MS960            MS960R           950              35.00      0.0130     0          0          0          0

  
  ERROR 209: undefined object SE910R at line 176 of [CONDUIT] section:
  SE910            SE910R           900              50.00      0.0130     0          0          0          0

  
  ERROR 209: undefined object SE890R at line 178 of [CONDUIT] section:
  SE890            SE890R           380              55.00      0.0185     0          0.43       0          0

  
  ERROR 209: undefined object PR550R at line 179 of [CONDUIT] section:
  PR550            PR550R           540              30.00      0.0221     1.70       8.60       0          0

  
  ERROR 209: undefined object PR530R at line 181 of [CONDUIT] section:
  PR530            PR530R           520              30.00      0.0197     0.14       0.65       0          0

  
  ERROR 209: undefined object AR630P2 at line 184 of [CONDUIT] section:
  AR630P1          AR630P2          AR630R           33.00      0.0253     0          0          0          0

  
  ERROR 209: undefined object AR610P1 at line 186 of [CONDUIT] section:
  AR610            AR610P1          AR610P2          22.00      0.0298     0          0          0          0

  
  ERROR 209: undefined object IH865R at line 194 of [CONDUIT] section:
  IH865            IH865R           860              30.00      0.0347     0          6.50       0          0

  
  ERROR 209: undefined object IH840R at line 197 of [CONDUIT] section:
  IH840            IH840R           830              50.00      0.0250     0          0          0          0

  
  ERROR 209: undefined object IH810R at line 200 of [CONDUIT] section:
  IH810            IH810R           800              35.00      0.0367     0          0          0          0

  
  ERROR 209: undefined object IH790R at line 202 of [CONDUIT] section:
  IH790            IH790R           780              35.00      0.0367     0          0          0          0

  
  ERROR 209: undefined object IH770R at line 204 of [CONDUIT] section:
  IH770            IH770R           760              35.00      0.0565     0.90       0          0          0

  
  ERROR 209: undefined object CC1080P2 at line 207 of [CONDUIT] section:
  CC1080P1         CC1080P2         CC1080R          180.00     0.0153     0          0          0          0

  
  ERROR 209: undefined object CC1060R at line 209 of [CONDUIT] section:
  CC1060           CC1060R          1055             30.00      0.0347     0          0          0          0

  
  ERROR 209: undefined object CC1040P2 at line 212 of [CONDUIT] section:
  CC1040P1         CC1040P2         CC1040R          100.00     0.0176     0          0          0          0

  
  ERROR 209: undefined object CC1020R at line 214 of [CONDUIT] section:
  CC1020           CC1020R          1010             53.00      0.0203     0          0.65       0          0

  
  ERROR 209: undefined object CC1000R at line 216 of [CONDUIT] section:
  CC1000           CC1000R          990              370.00     0.0153     0          0          0          0

  
  ERROR 209: undefined object CC980R at line 218 of [CONDUIT] section:
  CC980            CC980R           970              68.00      0.0270     0          2.43       0          0

  
  ERROR 209: undefined object KC500R at line 220 of [CONDUIT] section:
  KC500            KC500R           490              50.00      0.0277     0          0.95       0          0

  
  ERROR 209: undefined object KC460R at line 224 of [CONDUIT] section:
  KC460            KC460R           450              35.00      0.0232     0          4.71       0          0

  
  ERROR 209: undefined object KC940R at line 225 of [CONDUIT] section:
  KC940            KC940R           930              35.00      0.0210     0          24.70      0          0

  
  ERROR 209: undefined object KC450R at line 228 of [CONDUIT] section:
  KC450            KC450R           440              11.70      0.0543     4.72       4.08       0          0

  
  ERROR 209: undefined object KC440R at line 229 of [CONDUIT] section:
  KC440            KC440R           430              16.00      0.0426     3.56       6.56       0          0

  
  ERROR 209: undefined object KC420R at line 231 of [CONDUIT] section:
  KC420            KC420R           410              90.00      0.0214     0.79       1.09       0          0

  
  ERROR 209: undefined object ? at line 233 of [CONDUIT] section:
  KC400            ?                ?                500.00     0          75.00      74.00      0          0

  
  ERROR 209: undefined object 0 at line 244 of [XSECT] section:
  ED880R           IRREGULAR    0          0          0          0          1

  
  ERROR 209: undefined object 0 at line 245 of [XSECT] section:
  ED370R           IRREGULAR    0          0          0          0          1

  
  ERROR 209: undefined object 0 at line 246 of [XSECT] section:
  ED350R           IRREGULAR    0          0          0          0          1

  
  ERROR 209: undefined object 0 at line 247 of [XSECT] section:
  ED330R           IRREGULAR    0          0          0          0          1

  
  ERROR 209: undefined object 0 at line 248 of [XSECT] section:
  ED310R           IRREGULAR    0          0          0          0          1

  
  ERROR 209: undefined object 0 at line 249 of [XSECT] section:
  ED290R           IRREGULAR    0          0          0          0          1

  
  ERROR 209: undefined object 0 at line 250 of [XSECT] section:
  ED270R           IRREGULAR    0          0          0          0          1

  
  ERROR 209: undefined object 0 at line 251 of [XSECT] section:
  ED240R           IRREGULAR    0          0          0          0          1

  
  ERROR 209: undefined object 0 at line 252 of [XSECT] section:
  ED220R           IRREGULAR    0          0          0          0          1

  
  ERROR 209: undefined object 0 at line 253 of [XSECT] section:
  ED200R           IRREGULAR    0          0          0          0          1

  
  ERROR 209: undefined object 0 at line 254 of [XSECT] section:
  ED170R           IRREGULAR    0          0          0          0          1

  
  ERROR 209: undefined object 0 at line 255 of [XSECT] section:
  ED150R           IRREGULAR    0          0          0          0          1

  
  ERROR 209: undefined object 0 at line 256 of [XSECT] section:
  ED130R           IRREGULAR    0          0          0          0          1

  
  ERROR 209: undefined object 0 at line 257 of [XSECT] section:
  ED110R           IRREGULAR    0          0          0          0          1

  
  ERROR 209: undefined object 0 at line 258 of [XSECT] section:
  ED80R            IRREGULAR    0          0          0          0          1

  
  ERROR 209: undefined object 0 at line 259 of [XSECT] section:
  ED60R            IRREGULAR    0          0          0          0          1

  
  ERROR 209: undefined object 0 at line 260 of [XSECT] section:
  ED45R            IRREGULAR    0          0          0          0          1

  
  ERROR 209: undefined object 0 at line 261 of [XSECT] section:
  ED30R            IRREGULAR    0          0          0          0          1

  
  ERROR 209: undefined object 0 at line 262 of [XSECT] section:
  ED380            IRREGULAR    0          0          0          0          1

  
  ERROR 209: undefined object 0 at line 263 of [XSECT] section:
  ED360            IRREGULAR    0          0          0          0          1

  
  ERROR 209: undefined object 0 at line 264 of [XSECT] section:
  ED340            IRREGULAR    0          0          0          0          1

  
  ERROR 209: undefined object 0 at line 265 of [XSECT] section:
  ED320            IRREGULAR    0          0          0          0          1

  
  ERROR 209: undefined object 0 at line 266 of [XSECT] section:
  ED300            IRREGULAR    0          0          0          0          1

  
  ERROR 209: undefined object 0 at line 267 of [XSECT] section:
  ED280            IRREGULAR    0          0          0          0          1

  
  ERROR 209: undefined object 0 at line 268 of [XSECT] section:
  ED260            IRREGULAR    0          0          0          0          1

  
  ERROR 209: undefined object 0 at line 269 of [XSECT] section:
  ED250            IRREGULAR    0          0          0          0          1

  
  ERROR 209: undefined object 0 at line 270 of [XSECT] section:
  ED230            IRREGULAR    0          0          0          0          1

  
  ERROR 209: undefined object 0 at line 271 of [XSECT] section:
  ED210            IRREGULAR    0          0          0          0          1

  
  ERROR 209: undefined object 0 at line 272 of [XSECT] section:
  ED190            IRREGULAR    0          0          0          0          1

  
  ERROR 209: undefined object 0 at line 273 of [XSECT] section:
  ED180            IRREGULAR    0          0          0          0          1

  
  ERROR 209: undefined object 0 at line 274 of [XSECT] section:
  ED160            IRREGULAR    0          0          0          0          1

  
  ERROR 209: undefined object 0 at line 275 of [XSECT] section:
  ED140            IRREGULAR    0          0          0          0          1

  
  ERROR 209: undefined object 0 at line 276 of [XSECT] section:
  ED120            IRREGULAR    0          0          0          0          1

  
  ERROR 209: undefined object 0 at line 277 of [XSECT] section:
  ED100            IRREGULAR    0          0          0          0          1

  
  ERROR 209: undefined object 0 at line 278 of [XSECT] section:
  ED90             IRREGULAR    0          0          0          0          1

  
  ERROR 209: undefined object 0 at line 279 of [XSECT] section:
  ED70             IRREGULAR    0          0          0          0          1

  
  ERROR 209: undefined object 0 at line 280 of [XSECT] section:
  ED50             IRREGULAR    0          0          0          0          1

  
  ERROR 209: undefined object 0 at line 281 of [XSECT] section:
  ED40             IRREGULAR    0          0          0          0          1

  
  ERROR 209: undefined object 0 at line 282 of [XSECT] section:
  ED20             IRREGULAR    0          0          0          0          1

  
  ERROR 209: undefined object 0 at line 284 of [XSECT] section:
  MS950            IRREGULAR    0          0          0          0          1

  
  ERROR 209: undefined object 0 at line 286 of [XSECT] section:
  SE900            IRREGULAR    0          0          0          0          1

  
  ERROR 209: undefined object 0 at line 289 of [XSECT] section:
  PR540            IRREGULAR    0          0          0          0          1

  
  ERROR 209: undefined object 0 at line 291 of [XSECT] section:
  PR520            IRREGULAR    0          0          0          0          1

  
  ERROR 209: undefined object 0 at line 292 of [XSECT] section:
  PR510R           IRREGULAR    0          0          0          0          1

  
  ERROR 209: undefined object 0 at line 294 of [XSECT] section:
  AR620            IRREGULAR    0          0          0          0          1

  
  ERROR 209: undefined object 0 at line 296 of [XSECT] section:
  AR600            IRREGULAR    0          0          0          0          1

  
  ERROR 209: undefined object 0 at line 297 of [XSECT] section:
  AR590            IRREGULAR    0          0          0          0          1

  
  ERROR 209: undefined object 0 at line 300 of [XSECT] section:
  AR560            IRREGULAR    0          0          0          0          1

  
  ERROR 209: undefined object 0 at line 301 of [XSECT] section:
  AR580R           IRREGULAR    0          0          0          0          1

  
  ERROR 209: undefined object 0 at line 302 of [XSECT] section:
  IH870            IRREGULAR    0          0          0          0          1

  
  ERROR 209: undefined object 0 at line 304 of [XSECT] section:
  IH860            IRREGULAR    0          0          0          0          1

  
  ERROR 209: undefined object 0 at line 305 of [XSECT] section:
  IH850            IRREGULAR    0          0          0          0          1

  
  ERROR 209: undefined object 0 at line 307 of [XSECT] section:
  IH830            IRREGULAR    0          0          0          0          1

  
  ERROR 209: undefined object 0 at line 308 of [XSECT] section:
  IH820            IRREGULAR    0          0          0          0          1

  
  ERROR 209: undefined object 0 at line 310 of [XSECT] section:
  IH800            IRREGULAR    0          0          0          0          1

  
  ERROR 209: undefined object 0 at line 312 of [XSECT] section:
  IH780            IRREGULAR    0          0          0          0          1

  
  ERROR 209: undefined object 0 at line 314 of [XSECT] section:
  IH760            IRREGULAR    0          0          0          0          1

  
  Maximum error count exceeded.

  Analysis begun on:  Sat Mar  7 21:51:24 2026
  Analysis ended on:  Sat Mar  7 21:51:24 2026
  Total elapsed time: < 1 sec