
  EPA STORM WATER MANAGEMENT MODEL - VERSION 5.2 (Build 5.2.4)
  ------------------------------------------------------------

  
  ERROR 209: undefined object Node_612914 at line 2243 of [CONDUIT] section:
  612914           Node_612914      Node_13051307    125.00     0.0130     66.69      64.19      0          0

  
  ERROR 209: undefined object Node_1003392 at line 2342 of [CONDUIT] section:
  1003392          Node_1003392     Node_20252024    276.00     0.0130     5.79       4.69       0          0

  
  ERROR 209: undefined object Node_1106836 at line 2433 of [CONDUIT] section:
  1106836          Node_1106836     Node_17281729    225.64     0.0130     32.80      32.40      0          0

  
  ERROR 209: undefined object Node_1106837 at line 2445 of [CONDUIT] section:
  1106837          Node_1106837     Node_17291704    124.38     0.0130     32.40      28.08      0          0

  
  ERROR 209: undefined object Node_1100381 at line 2499 of [CONDUIT] section:
  1100381          Node_1100381     Node_18981899    96.53      0.0130     66.22      65.91      0          0

  
  ERROR 209: undefined object Node_1100219 at line 2500 of [CONDUIT] section:
  1100219          Node_1100219     Node_18911892    102.20     0.0130     73.52      73.06      0          0

  
  ERROR 209: undefined object Node_1103654 at line 2501 of [CONDUIT] section:
  1103654          Node_1103654     Node_15741577    129.67     0.0130     -2.59      -2.85      0          0

  
  ERROR 209: undefined object Node_1100222 at line 2502 of [CONDUIT] section:
  1100222          Node_1100222     Node_18931890    38.00      0.0130     71.27      70.91      0          0

  
  ERROR 209: undefined object Node_1100272 at line 2503 of [CONDUIT] section:
  1100272          Node_1100272     Node_18941892    232.00     0.0130     76.00      72.90      0          0

  
  ERROR 209: undefined object Node_1100375 at line 2504 of [CONDUIT] section:
  1100375          Node_1100375     Node_18951896    130.00     0.0130     66.86      66.47      0          0

  
  ERROR 209: undefined object Node_1103656 at line 2505 of [CONDUIT] section:
  1103656          Node_1103656     Node_15771578    21.81      0.0130     -2.85      -2.89      0          0

  
  ERROR 209: undefined object Node_1100379 at line 2506 of [CONDUIT] section:
  1100379          Node_1100379     Node_18971898    45.00      0.0130     66.36      66.22      0          0

  
  ERROR 209: undefined object Node_1100178 at line 2507 of [CONDUIT] section:
  1100178          Node_1100178     Node_18901886    256.00     0.0130     70.91      69.37      0          0

  
  ERROR 209: undefined object Node_1100383 at line 2508 of [CONDUIT] section:
  1100383          Node_1100383     Node_18991900    96.53      0.0130     65.91      65.60      0          0

  
  ERROR 209: undefined object Node_1100385 at line 2509 of [CONDUIT] section:
  1100385          Node_1100385     Node_19001901    96.53      0.0130     65.60      65.29      0          0

  
  ERROR 209: undefined object Node_1100387 at line 2510 of [CONDUIT] section:
  1100387          Node_1100387     Node_19011902    99.00      0.0130     65.29      64.97      0          0

  
  ERROR 209: undefined object Node_1100389 at line 2511 of [CONDUIT] section:
  1100389          Node_1100389     Node_19021903    241.29     0.0130     64.97      64.20      0          0

  
  ERROR 209: undefined object Node_1100391 at line 2512 of [CONDUIT] section:
  1100391          Node_1100391     Node_19031904    53.82      0.0130     64.20      64.03      0          0

  
  ERROR 209: undefined object Node_1100392 at line 2513 of [CONDUIT] section:
  1100392          Node_1100392     Node_19041884    87.52      0.0130     64.03      63.75      0          0

  
  ERROR 209: undefined object Node_1100377 at line 2515 of [CONDUIT] section:
  1100377          Node_1100377     Node_18961897    35.00      0.0130     66.47      66.36      0          0

  
  ERROR 209: undefined object Node_1100003 at line 2516 of [CONDUIT] section:
  1100003          Node_1100003     Node_18891881    178.28     0.0130     67.18      65.93      0          0

  
  ERROR 209: undefined object Node_1005362 at line 2517 of [CONDUIT] section:
  1005362          Node_1005362     Node_13331334    179.00     0.0130     48.08      45.75      0          0

  
  ERROR 209: undefined object Node_1005397 at line 2518 of [CONDUIT] section:
  1005397          Node_1005397     Node_18751871    64.00      0.0130     66.51      66.25      0          0

  
  ERROR 209: undefined object Node_1100221 at line 2522 of [CONDUIT] section:
  1100221          Node_1100221     Node_18921893    153.71     0.0130     72.73      71.27      0          0

  
  ERROR 209: undefined object Node_1100025 at line 2524 of [CONDUIT] section:
  1100025          Node_1100025     Node_18881889    208.57     0.0130     68.22      67.18      0          0

  
  ERROR 209: undefined object Node_1100005 at line 2525 of [CONDUIT] section:
  1100005          Node_1100005     Node_18811882    188.79     0.0130     65.93      64.99      0          0

  
  ERROR 209: undefined object Node_1100007 at line 2526 of [CONDUIT] section:
  1100007          Node_1100007     Node_18821883    162.68     0.0130     64.99      64.18      0          0

  
  ERROR 209: undefined object Node_1100009 at line 2527 of [CONDUIT] section:
  1100009          Node_1100009     Node_18831884    130.50     0.0130     64.18      62.81      0          0

  
  ERROR 209: undefined object Node_1100011 at line 2528 of [CONDUIT] section:
  1100011          Node_1100011     Node_18841885    237.98     0.0130     62.56      61.70      0          0

  
  ERROR 209: undefined object Node_1100012 at line 2529 of [CONDUIT] section:
  1100012          Node_1100012     Node_18851880    155.00     0.0130     61.70      61.38      0          0

  
  ERROR 209: undefined object Node_1100021 at line 2530 of [CONDUIT] section:
  1100021          Node_1100021     Node_18861887    85.66      0.0130     69.37      68.86      0          0

  
  ERROR 209: undefined object Node_1100023 at line 2531 of [CONDUIT] section:
  1100023          Node_1100023     Node_18871888    105.18     0.0130     68.86      68.55      0          0

  
  ERROR 209: undefined object Node_1105443 at line 2533 of [CONDUIT] section:
  1105443          Node_1105443     Node_17351736    163.91     0.0130     3.60       2.88       0          0

  
  ERROR 209: undefined object Node_1100428 at line 2534 of [CONDUIT] section:
  1100428          Node_1100428     Node_19051895    121.66     0.0130     67.25      66.86      0          0

  
  ERROR 209: undefined object Node_1105429 at line 2535 of [CONDUIT] section:
  1105429          Node_1105429     Node_17171722    84.04      0.0130     -7.39      -7.55      0          0

  
  ERROR 209: undefined object Node_1105431 at line 2536 of [CONDUIT] section:
  1105431          Node_1105431     Node_17221731    108.26     0.0130     -7.55      -7.80      0          0

  
  ERROR 209: undefined object Node_1105433 at line 2537 of [CONDUIT] section:
  1105433          Node_1105433     Node_17311732    78.50      0.0130     -7.80      -8.00      0          0

  
  ERROR 209: undefined object Node_1105435 at line 2538 of [CONDUIT] section:
  1105435          Node_1105435     Node_17321733    22.38      0.0130     -8.00      -8.10      0          0

  
  ERROR 209: undefined object Node_1105384 at line 2539 of [CONDUIT] section:
  1105384          Node_1105384     Node_17201721    51.00      0.0130     6.64       6.13       0          0

  
  ERROR 209: undefined object Node_1105441 at line 2540 of [CONDUIT] section:
  1105441          Node_1105441     Node_17301735    138.34     0.0130     5.08       3.60       0          0

  
  ERROR 209: undefined object Node_1105382 at line 2541 of [CONDUIT] section:
  1105382          Node_1105382     Node_17081720    85.00      0.0130     7.45       6.64       0          0

  
  ERROR 209: undefined object Node_1105444 at line 2542 of [CONDUIT] section:
  1105444          Node_1105444     Node_17361733    132.69     0.0130     2.88       -8.10      0          0

  
  ERROR 209: undefined object Node_1105448 at line 2543 of [CONDUIT] section:
  1105448          Node_1105448     Node_17341737    26.88      0.0130     -8.15      -8.29      0          0

  
  ERROR 209: undefined object Node_1105452 at line 2544 of [CONDUIT] section:
  1105452          Node_1105452     Node_17371723    168.76     0.0130     -8.29      -9.14      0          0

  
  ERROR 209: undefined object Node_1106828 at line 2545 of [CONDUIT] section:
  1106828          Node_1106828     Node_17241725    20.00      0.0130     34.48      34.10      0          0

  
  ERROR 209: undefined object Node_1106830 at line 2546 of [CONDUIT] section:
  1106830          Node_1106830     Node_17251726    309.72     0.0130     34.10      33.50      0          0

  
  ERROR 209: undefined object Node_1106832 at line 2547 of [CONDUIT] section:
  1106832          Node_1106832     Node_17261727    201.00     0.0130     33.50      33.13      0          0

  
  ERROR 209: undefined object Node_1106834 at line 2548 of [CONDUIT] section:
  1106834          Node_1106834     Node_17271728    154.44     0.0130     33.13      32.80      0          0

  
  ERROR 209: undefined object Node_1105439 at line 2549 of [CONDUIT] section:
  1105439          Node_1105439     Node_17331734    10.20      0.0130     -8.10      -8.15      0          0

  
  ERROR 209: undefined object Node_1103670 at line 2550 of [CONDUIT] section:
  1103670          Node_1103670     Node_17101711    153.43     0.0130     -4.89      -5.20      0          0

  
  ERROR 209: undefined object Node_1103658 at line 2551 of [CONDUIT] section:
  1103658          Node_1103658     Node_15781579    82.75      0.0130     -2.89      -3.06      0          0

  
  ERROR 209: undefined object Node_1103660 at line 2552 of [CONDUIT] section:
  1103660          Node_1103660     Node_15791580    128.60     0.0130     -3.06      -3.32      0          0

  
  ERROR 209: undefined object Node_1103661 at line 2553 of [CONDUIT] section:
  1103661          Node_1103661     Node_15801575    199.35     0.0130     -3.32      -3.71      0          0

  
  ERROR 209: undefined object Node_1103663 at line 2554 of [CONDUIT] section:
  1103663          Node_1103663     Node_15751581    243.16     0.0130     -3.71      -4.20      0          0

  
  ERROR 209: undefined object Node_1103664 at line 2555 of [CONDUIT] section:
  1103664          Node_1103664     Node_15761581    22.00      0.0130     -4.20      -4.20      0          0

  
  ERROR 209: undefined object Node_1105386 at line 2556 of [CONDUIT] section:
  1105386          Node_1105386     Node_17211730    50.00      0.0130     6.13       5.60       0          0

  
  ERROR 209: undefined object Node_1103668 at line 2557 of [CONDUIT] section:
  1103668          Node_1103668     Node_15821710    145.48     0.0130     -4.60      -4.89      0          0

  
  ERROR 209: undefined object Node_1103672 at line 2559 of [CONDUIT] section:
  1103672          Node_1103672     Node_17111712    240.00     0.0130     -5.20      -5.68      0          0

  
  ERROR 209: undefined object Node_1103674 at line 2560 of [CONDUIT] section:
  1103674          Node_1103674     Node_17121713    160.00     0.0130     -5.68      -6.00      0          0

  
  ERROR 209: undefined object Node_1103676 at line 2561 of [CONDUIT] section:
  1103676          Node_1103676     Node_17131714    124.18     0.0130     -6.00      -6.25      0          0

  
  ERROR 209: undefined object Node_1103678 at line 2562 of [CONDUIT] section:
  1103678          Node_1103678     Node_17141715    194.01     0.0130     -6.25      -6.64      0          0

  
  ERROR 209: undefined object Node_1103680 at line 2563 of [CONDUIT] section:
  1103680          Node_1103680     Node_17151716    209.24     0.0130     -6.64      -7.06      0          0

  
  ERROR 209: undefined object Node_1103682 at line 2564 of [CONDUIT] section:
  1103682          Node_1103682     Node_17161717    166.08     0.0130     -7.06      -7.39      0          0

  
  ERROR 209: undefined object Node_1105379 at line 2565 of [CONDUIT] section:
  1105379          Node_1105379     Node_17191709    59.00      0.0130     10.05      9.46       0          0

  
  ERROR 209: undefined object Node_1105380 at line 2566 of [CONDUIT] section:
  1105380          Node_1105380     Node_17091708    116.00     0.0130     9.46       8.30       0          0

  
  ERROR 209: undefined object Node_1103666 at line 2567 of [CONDUIT] section:
  1103666          Node_1103666     Node_15811582    199.13     0.0130     -4.20      -4.60      0          0

  
  ERROR 209: undefined object Node_588596 at line 2706 of [CONDUIT] section:
  588596           Node_588596      Node_11211122    83.00      0.0130     115.00     113.77     0          0

  
  ERROR 209: undefined object Node_584131 at line 2707 of [CONDUIT] section:
  584131           Node_584131      Node_11171116    145.00     0.0130     89.10      84.40      0          0

  
  ERROR 209: undefined object Node_583925 at line 2708 of [CONDUIT] section:
  583925           Node_583925      Node_10921096    89.15      0.0130     90.69      89.11      0          0

  
  ERROR 209: undefined object Node_584151 at line 2709 of [CONDUIT] section:
  584151           Node_584151      Node_10981094    367.40     0.0130     16.66      15.52      0          0

  
  ERROR 209: undefined object Node_584153 at line 2710 of [CONDUIT] section:
  584153           Node_584153      Node_11091114    200.00     0.0130     58.22      57.02      0          0

  
  ERROR 209: undefined object Node_588327 at line 2711 of [CONDUIT] section:
  588327           Node_588327      Node_11181120    221.00     0.0130     108.78     108.34     0          0

  
  ERROR 209: undefined object Node_588916 at line 2712 of [CONDUIT] section:
  588916           Node_588916      Node_11291131    265.48     0.0130     62.95      45.64      0          0

  
  ERROR 209: undefined object Node_588465 at line 2713 of [CONDUIT] section:
  588465           Node_588465      Node_11201123    260.00     0.0130     108.34     107.82     0          0

  
  ERROR 209: undefined object Node_584126 at line 2714 of [CONDUIT] section:
  584126           Node_584126      Node_10841083    112.00     0.0130     27.81      22.45      0          0

  
  ERROR 209: undefined object Node_588657 at line 2715 of [CONDUIT] section:
  588657           Node_588657      Node_11221124    46.20      0.0130     113.77     113.08     0          0

  
  ERROR 209: undefined object Node_588659 at line 2716 of [CONDUIT] section:
  588659           Node_588659      Node_11231125    62.00      0.0130     107.82     107.70     0          0

  
  ERROR 209: undefined object Node_588689 at line 2717 of [CONDUIT] section:
  588689           Node_588689      Node_11241126    111.60     0.0130     113.08     111.43     0          0

  
  ERROR 209: undefined object Node_588698 at line 2718 of [CONDUIT] section:
  588698           Node_588698      Node_11251128    210.00     0.0130     107.70     106.06     0          0

  
  ERROR 209: undefined object Node_588767 at line 2719 of [CONDUIT] section:
  588767           Node_588767      Node_11261127    40.00      0.0130     111.43     110.60     0          0

  
  ERROR 209: undefined object Node_583928 at line 2720 of [CONDUIT] section:
  583928           Node_583928      Node_10931097    75.00      0.0130     85.63      79.84      0          0

  
  ERROR 209: undefined object Node_588852 at line 2721 of [CONDUIT] section:
  588852           Node_588852      Node_11281134    340.00     0.0130     106.06     101.91     0          0

  
  ERROR 209: undefined object Node_588429 at line 2722 of [CONDUIT] section:
  588429           Node_588429      Node_11191121    230.20     0.0130     116.69     115.00     0          0

  
  ERROR 209: undefined object Node_584047 at line 2723 of [CONDUIT] section:
  584047           Node_584047      Node_11041108    146.00     0.0130     59.50      58.62      0          0

  
  ERROR 209: undefined object Node_578920 at line 2724 of [CONDUIT] section:
  578920           Node_578920      Node_10151013    161.00     0.0130     151.10     148.00     0          0

  
  ERROR 209: undefined object Node_583936 at line 2725 of [CONDUIT] section:
  583936           Node_583936      Node_10951201    314.46     0.0130     10.84      10.15      0          0

  
  ERROR 209: undefined object Node_583968 at line 2726 of [CONDUIT] section:
  583968           Node_583968      Node_10971101    59.03      0.0130     79.84      78.60      0          0

  
  ERROR 209: undefined object Node_583976 at line 2727 of [CONDUIT] section:
  583976           Node_583976      Node_11001106    245.08     0.0130     71.61      61.32      0          0

  
  ERROR 209: undefined object Node_583996 at line 2728 of [CONDUIT] section:
  583996           Node_583996      Node_11011102    167.76     0.0130     78.60      74.79      0          0

  
  ERROR 209: undefined object Node_584136 at line 2729 of [CONDUIT] section:
  584136           Node_584136      Node_10571118    169.00     0.0130     110.18     109.28     0          0

  
  ERROR 209: undefined object Node_584044 at line 2730 of [CONDUIT] section:
  584044           Node_584044      Node_11031105    34.00      0.0130     80.07      79.57      0          0

  
  ERROR 209: undefined object Node_584124 at line 2731 of [CONDUIT] section:
  584124           Node_584124      Node_10991100    97.22      0.0130     76.06      71.61      0          0

  
  ERROR 209: undefined object Node_584050 at line 2732 of [CONDUIT] section:
  584050           Node_584050      Node_11051112    112.00     0.0130     79.57      78.00      0          0

  
  ERROR 209: undefined object Node_584056 at line 2733 of [CONDUIT] section:
  584056           Node_584056      Node_11061111    89.27      0.0130     61.32      58.64      0          0

  
  ERROR 209: undefined object Node_584063 at line 2734 of [CONDUIT] section:
  584063           Node_584063      Node_11071113    126.03     0.0130     71.77      70.51      0          0

  
  ERROR 209: undefined object Node_584066 at line 2735 of [CONDUIT] section:
  584066           Node_584066      Node_11081109    67.00      0.0130     58.62      58.22      0          0

  
  ERROR 209: undefined object Node_584075 at line 2736 of [CONDUIT] section:
  584075           Node_584075      Node_11101115    142.07     0.0130     77.72      68.69      0          0

  
  ERROR 209: undefined object Node_584078 at line 2737 of [CONDUIT] section:
  584078           Node_584078      Node_11121110    20.28      0.0130     78.00      77.72      0          0

  
  ERROR 209: undefined object Node_584082 at line 2738 of [CONDUIT] section:
  584082           Node_584082      Node_11131115    206.72     0.0130     70.51      68.44      0          0

  
  ERROR 209: undefined object Node_584036 at line 2739 of [CONDUIT] section:
  584036           Node_584036      Node_11021107    122.55     0.0130     74.79      72.02      0          0

  
  Maximum error count exceeded.

  Analysis begun on:  Sat Mar  7 21:51:33 2026
  Analysis ended on:  Sat Mar  7 21:51:33 2026
  Total elapsed time: < 1 sec