
  EPA STORM WATER MANAGEMENT MODEL - VERSION 5.2 (Build 5.2.4)
  ------------------------------------------------------------

  
  ERROR 209: undefined object gtlp12 at line 382 of [PUMP] section:
  gtlp11           gtlp12           gtlp13           *          ON       0          0         

  
  ERROR 209: undefined object gtlp22 at line 383 of [PUMP] section:
  gtlp21           gtlp22           gtlp23           *          ON       0          0         

  
  ERROR 209: undefined object gtlps32 at line 384 of [PUMP] section:
  gtlps31          gtlps32          gtlps33          *          ON       0          0         


  Analysis begun on:  Sat Mar  7 21:51:33 2026
  Analysis ended on:  Sat Mar  7 21:51:33 2026
  Total elapsed time: < 1 sec