
  EPA STORM WATER MANAGEMENT MODEL - VERSION 5.2 (Build 5.2.4)
  ------------------------------------------------------------

  
  ERROR 209: undefined object Node_180 at line 1025 of [CONDUIT] section:
  4_172_4_180      Node_180         Node_11801153    371.23     0.0190     93.02      90.32      0          0

  
  ERROR 209: undefined object Node_176 at line 1026 of [CONDUIT] section:
  4_173_4_176      Node_176         Node_11791154    349.19     0.0190     97.98      92.21      0          0

  
  ERROR 209: undefined object Node_175 at line 1027 of [CONDUIT] section:
  4_174_4_175      Node_175         Node_11671152    198.51     0.0190     100.88     95.73      0          0

  
  ERROR 209: undefined object Node_170 at line 1028 of [CONDUIT] section:
  4_171_4_170      Node_170         Node_11331093    267.40     0.0190     89.62      88.82      0          0

  
  ERROR 209: undefined object Node_166 at line 1029 of [CONDUIT] section:
  4_167_4_166      Node_166         Node_11721173    311.03     0.0190     103.88     102.30     0          0

  
  ERROR 209: undefined object Node_165 at line 1030 of [CONDUIT] section:
  4_166_4_165      Node_165         Node_11731169    187.23     0.0190     102.25     101.24     0          0

  
  ERROR 209: undefined object Node_164 at line 1031 of [CONDUIT] section:
  4_165_4_164      Node_164         Node_11691140    308.27     0.0190     101.26     98.98      0          0

  
  ERROR 209: undefined object Node_163 at line 1032 of [CONDUIT] section:
  4_164_4_163      Node_163         Node_11401121    302.28     0.0190     98.92      91.02      0          0

  
  ERROR 209: undefined object Node_162 at line 1033 of [CONDUIT] section:
  4_163_4_162      Node_162         Node_11211077    338.88     0.0190     90.95      88.54      0          0

  
  ERROR 209: undefined object Node_161 at line 1034 of [CONDUIT] section:
  4_162_4_161      Node_161         Node_10771056    222.97     0.0190     88.51      87.59      0          0

  
  ERROR 209: undefined object Node_136 at line 1035 of [CONDUIT] section:
  4_137_4_136      Node_136         Node_11771175    103.81     0.0190     107.15     105.63     0          0

  
  ERROR 209: undefined object Node_135 at line 1036 of [CONDUIT] section:
  4_136_4_135      Node_135         Node_11751159    171.15     0.0190     105.63     104.03     0          0

  
  ERROR 209: undefined object Node_134 at line 1037 of [CONDUIT] section:
  4_135_4_134      Node_134         Node_11591139    242.95     0.0190     104.03     102.52     0          0

  
  ERROR 209: undefined object Node_133 at line 1038 of [CONDUIT] section:
  4_134_4_133      Node_133         Node_11391132    148.79     0.0190     102.52     101.85     0          0

  
  ERROR 209: undefined object Node_132 at line 1039 of [CONDUIT] section:
  4_133_4_132      Node_132         Node_11321126    150.30     0.0190     101.85     101.35     0          0

  
  ERROR 209: undefined object Node_131 at line 1040 of [CONDUIT] section:
  4_132_4_131      Node_131         Node_11261110    114.80     0.0190     101.35     100.87     0          0

  
  ERROR 209: undefined object Node_130 at line 1041 of [CONDUIT] section:
  4_131_4_130      Node_130         Node_11101097    152.75     0.0190     100.87     99.79      0          0

  
  ERROR 209: undefined object Node_129 at line 1042 of [CONDUIT] section:
  4_130_4_129      Node_129         Node_10971080    146.24     0.0190     99.79      98.47      0          0

  
  ERROR 209: undefined object Node_127 at line 1043 of [CONDUIT] section:
  4_128_4_127      Node_127         Node_10691058    141.68     0.0190     97.02      95.99      0          0

  
  ERROR 209: undefined object Node_126 at line 1044 of [CONDUIT] section:
  4_127_4_126      Node_126         Node_10581049    78.03      0.0190     95.99      95.53      0          0

  
  ERROR 209: undefined object Node_125 at line 1045 of [CONDUIT] section:
  4_126_4_125      Node_125         Node_10491034    144.88     0.0190     95.53      94.92      0          0

  
  ERROR 209: undefined object Node_124 at line 1046 of [CONDUIT] section:
  4_125_4_124      Node_124         Node_10341026    142.13     0.0190     94.92      94.46      0          0

  
  ERROR 209: undefined object Node_123 at line 1047 of [CONDUIT] section:
  4_124_4_123      Node_123         Node_10261013    137.41     0.0190     94.46      93.93      0          0

  
  ERROR 209: undefined object Node_122 at line 1048 of [CONDUIT] section:
  4_123_4_122      Node_122         Node_10131000    143.04     0.0190     93.93      93.30      0          0

  
  ERROR 209: undefined object Node_121 at line 1049 of [CONDUIT] section:
  4_122_4_121      Node_121         Node_1000981     145.33     0.0190     93.30      92.50      0          0

  
  ERROR 209: undefined object Node_101 at line 1055 of [CONDUIT] section:
  4_100_4_101      Node_101         Node_1012999     145.77     0.0190     93.60      93.30      0          0

  
  ERROR 209: undefined object Node_102 at line 1056 of [CONDUIT] section:
  4_101_4_102      Node_102         Node_10241012    135.99     0.0190     94.00      93.60      0          0

  
  ERROR 209: undefined object Node_103 at line 1057 of [CONDUIT] section:
  4_102_4_103      Node_103         Node_10331024    143.08     0.0190     94.49      94.00      0          0

  
  ERROR 209: undefined object Node_104 at line 1058 of [CONDUIT] section:
  4_103_4_104      Node_104         Node_10531033    193.23     0.0190     95.56      94.49      0          0

  
  ERROR 209: undefined object Node_105 at line 1059 of [CONDUIT] section:
  4_104_4_105      Node_105         Node_10651053    161.60     0.0190     96.97      95.56      0          0

  
  ERROR 209: undefined object Node_106 at line 1060 of [CONDUIT] section:
  4_105_4_106      Node_106         Node_10781065    161.95     0.0190     98.24      96.97      0          0

  
  ERROR 209: undefined object Node_107 at line 1061 of [CONDUIT] section:
  4_106_4_107      Node_107         Node_10941078    162.51     0.0190     99.69      98.24      0          0

  
  ERROR 209: undefined object Node_108 at line 1062 of [CONDUIT] section:
  4_107_4_108      Node_108         Node_11121094    156.50     0.0190     101.06     99.69      0          0

  
  ERROR 209: undefined object Node_109 at line 1063 of [CONDUIT] section:
  4_108_4_109      Node_109         Node_11271112    146.91     0.0190     101.67     101.06     0          0

  
  ERROR 209: undefined object Node_110 at line 1064 of [CONDUIT] section:
  4_109_4_110      Node_110         Node_11381127    245.07     0.0190     102.83     101.67     0          0

  
  ERROR 209: undefined object Node_111 at line 1065 of [CONDUIT] section:
  4_110_4_111      Node_111         Node_11551138    239.01     0.0190     104.03     102.83     0          0

  
  ERROR 209: undefined object Node_112 at line 1066 of [CONDUIT] section:
  4_111_4_112      Node_112         Node_11741155    161.04     0.0190     105.63     104.03     0          0

  
  ERROR 209: undefined object Node_113 at line 1067 of [CONDUIT] section:
  4_112_4_113      Node_113         Node_11781174    142.56     0.0190     107.03     105.63     0          0

  
  ERROR 209: undefined object ? at line 1068 of [CONDUIT] section:
  4_0_4_0          ?                Node_11421157    182.18     0.0190     90.59      89.18      0          0

  
  ERROR 209: undefined object ? at line 1069 of [CONDUIT] section:
  4_0__0           ?                Node_11571158    327.62     0.0190     89.15      81.73      0          0

  
  ERROR 209: undefined object Node_167 at line 1070 of [CONDUIT] section:
  _0_3_167         Node_167         Node_11291158    333.50     0.0190     84.55      81.77      0          0

  
  ERROR 209: undefined object Node_155 at line 1071 of [CONDUIT] section:
  4_168_4_155      Node_155         Node_11371128    140.06     0.0190     90.17      89.04      0          0

  
  ERROR 209: undefined object Node_154 at line 1072 of [CONDUIT] section:
  4_155_4_154      Node_154         Node_11281099    189.66     0.0190     89.04      88.16      0          0

  
  ERROR 209: undefined object ? at line 1073 of [CONDUIT] section:
  3_27_3_26        ?                Node_10411072    258.53     0.0190     62.26      60.55      0          0

  
  ERROR 209: undefined object ? at line 1074 of [CONDUIT] section:
  3_27_3_28        ?                Node_10181041    239.75     0.0190     64.17      62.29      0          0

  
  ERROR 209: undefined object Node_126 at line 1080 of [CONDUIT] section:
  3_127_3_126      Node_126         Node_10671116    311.88     0.0190     63.31      62.30      0          0

  
  ERROR 209: undefined object Node_125 at line 1081 of [CONDUIT] section:
  3_126_3_125      Node_125         Node_11161144    293.86     0.0190     62.30      60.90      0          0

  
  ERROR 209: undefined object Node_108 at line 1094 of [CONDUIT] section:
  6_107_6_108      Node_108         Node_1002969     177.55     0.0190     80.59      80.00      0          0

  
  ERROR 209: undefined object Node_109 at line 1095 of [CONDUIT] section:
  6_108_6_109      Node_109         Node_10171002    162.26     0.0190     81.46      80.64      0          0

  
  ERROR 209: undefined object Node_110 at line 1096 of [CONDUIT] section:
  6_109_6_110      Node_110         Node_10271017    128.21     0.0190     81.77      81.43      0          0

  
  ERROR 209: undefined object Node_111 at line 1097 of [CONDUIT] section:
  6_110_6_111      Node_111         Node_10401027    177.20     0.0190     85.57      82.04      0          0

  
  ERROR 209: undefined object Node_112 at line 1098 of [CONDUIT] section:
  6_111_6_112      Node_112         Node_10601040    161.33     0.0190     91.03      85.70      0          0

  
  ERROR 209: undefined object Node_101 at line 1105 of [CONDUIT] section:
  6_99_6_101       Node_101         Node_1011971     255.21     0.0190     81.69      79.28      0          0

  
  ERROR 209: undefined object Node_2501 at line 1106 of [CONDUIT] section:
  2501             Node_2501        Node_1003972     175.28     0.0190     82.99      78.13      0          0

  
  ERROR 209: undefined object Node_106 at line 1107 of [CONDUIT] section:
  6_105_6_106      Node_106         Node_10361003    336.90     0.0190     87.46      83.00      0          0

  
  ERROR 209: undefined object Node_161 at line 1108 of [CONDUIT] section:
  6_82_3_161       Node_161         Node_1010976     223.84     0.0190     88.76      81.78      0          0

  
  ERROR 209: undefined object Node_160 at line 1109 of [CONDUIT] section:
  3_161_3_160      Node_160         Node_10101028    170.32     0.0190     88.88      85.94      0          0

  
  ERROR 209: undefined object Node_159 at line 1110 of [CONDUIT] section:
  3_160_3_159      Node_159         Node_10281039    144.63     0.0190     85.83      81.73      0          0

  
  ERROR 209: undefined object Node_158 at line 1111 of [CONDUIT] section:
  3_159_3_158      Node_158         Node_10391062    177.42     0.0190     81.62      76.91      0          0

  
  ERROR 209: undefined object Node_163 at line 1112 of [CONDUIT] section:
  3_162_3_163      Node_163         Node_10451051    170.37     0.0190     87.81      82.93      0          0

  
  ERROR 209: undefined object Node_164 at line 1113 of [CONDUIT] section:
  3_163_3_164      Node_164         Node_10521045    147.03     0.0190     89.63      87.79      0          0

  
  ERROR 209: undefined object Node_165 at line 1114 of [CONDUIT] section:
  3_164_3_165      Node_165         Node_10641052    135.83     0.0190     90.86      89.56      0          0

  
  ERROR 209: undefined object Node_140 at line 1116 of [CONDUIT] section:
  3_141_3_140      Node_140         Node_10191037    187.86     0.0190     74.90      72.83      0          0

  
  ERROR 209: undefined object Node_139 at line 1117 of [CONDUIT] section:
  3_140_3_139      Node_139         Node_10371057    194.52     0.0190     72.83      70.87      0          0

  
  ERROR 209: undefined object Node_143 at line 1118 of [CONDUIT] section:
  3_139_3_143      Node_143         Node_10681057    114.35     0.0190     71.23      70.91      0          0

  
  ERROR 209: undefined object Node_144 at line 1119 of [CONDUIT] section:
  3_143_3_144      Node_144         Node_10741068    104.54     0.0190     72.72      71.32      0          0

  
  ERROR 209: undefined object Node_158 at line 1120 of [CONDUIT] section:
  3_153_3_158      Node_158         Node_10621081    152.35     0.0190     76.81      74.17      0          0

  
  ERROR 209: undefined object Node_2502 at line 1121 of [CONDUIT] section:
  2502             Node_2502        Node_10921081    240.15     0.0190     79.35      74.42      0          0

  
  ERROR 209: undefined object Node_155 at line 1122 of [CONDUIT] section:
  3_154_3_155      Node_155         Node_10981092    208.64     0.0190     84.24      79.37      0          0

  
  ERROR 209: undefined object Node_156 at line 1123 of [CONDUIT] section:
  3_155_3_156      Node_156         Node_10911098    193.53     0.0190     92.88      84.36      0          0

  
  ERROR 209: undefined object Node_157 at line 1124 of [CONDUIT] section:
  3_156_3_157      Node_157         Node_10891091    221.72     0.0190     99.70      92.88      0          0

  
  ERROR 209: undefined object Node_151 at line 1125 of [CONDUIT] section:
  3_152_3_151      Node_151         Node_11021105    213.94     0.0190     94.78      89.95      0          0

  
  ERROR 209: undefined object Node_150 at line 1126 of [CONDUIT] section:
  3_151_3_150      Node_150         Node_11051111    167.70     0.0190     89.86      85.67      0          0

  
  ERROR 209: undefined object Node_150 at line 1127 of [CONDUIT] section:
  3_150_3_0        Node_150         Node_11111108    153.76     0.0190     85.61      81.95      0          0

  
  ERROR 209: undefined object Node_147 at line 1128 of [CONDUIT] section:
  3_148_3_147      Node_147         Node_11031096    172.39     0.0190     77.82      74.31      0          0

  
  ERROR 209: undefined object Node_153 at line 1129 of [CONDUIT] section:
  3_147_3_153      Node_153         Node_10811096    87.50      0.0190     74.14      73.38      0          0

  
  ERROR 209: undefined object Node_137 at line 1130 of [CONDUIT] section:
  3_138_3_137      Node_137         Node_10851075    142.97     0.0190     73.43      71.91      0          0

  
  ERROR 209: undefined object Node_133 at line 1131 of [CONDUIT] section:
  3_137_3_133      Node_133         Node_10751063    147.09     0.0190     71.92      69.51      0          0

  
  ERROR 209: undefined object Node_139 at line 1132 of [CONDUIT] section:
  3_133_3_139      Node_139         Node_10571063    88.76      0.0190     70.62      69.45      0          0

  
  ERROR 209: undefined object Node_2503 at line 1133 of [CONDUIT] section:
  2503             Node_2503        Node_10461063    151.81     0.0190     71.68      69.44      0          0

  
  ERROR 209: undefined object Node_135 at line 1134 of [CONDUIT] section:
  3_134_3_135      Node_135         Node_10251046    225.43     0.0190     73.42      71.73      0          0

  
  ERROR 209: undefined object Node_127 at line 1136 of [CONDUIT] section:
  3_130_3_127      Node_127         Node_10611067    251.05     0.0190     64.71      63.55      0          0

  
  ERROR 209: undefined object Node_2504 at line 1137 of [CONDUIT] section:
  2504             Node_2504        Node_10631090    213.63     0.0190     69.36      68.37      0          0

  
  ERROR 209: undefined object Node_131 at line 1138 of [CONDUIT] section:
  3_132_3_131      Node_131         Node_10901131    245.94     0.0190     68.32      67.31      0          0

  
  ERROR 209: undefined object Node_164 at line 1139 of [CONDUIT] section:
  3_147_3_164      Node_164         Node_10961       223.89     0.0190     73.38      71.30      0          0

  
  ERROR 209: undefined object Node_2506 at line 1149 of [CONDUIT] section:
  2506             Node_2506        Node_1004968     201.90     0.0190     83.70      82.53      0          0

  
  ERROR 209: undefined object Node_149 at line 1150 of [CONDUIT] section:
  4_148_4_149      Node_149         Node_10161004    106.30     0.0190     84.64      83.70      0          0

  
  ERROR 209: undefined object Node_157 at line 1151 of [CONDUIT] section:
  4_149_4_157      Node_157         Node_10141016    335.68     0.0190     85.64      84.94      0          0

  
  ERROR 209: undefined object Node_151 at line 1153 of [CONDUIT] section:
  4_150_4_151      Node_151         Node_10381020    173.44     0.0190     86.04      84.64      0          0

  
  ERROR 209: undefined object Node_152 at line 1154 of [CONDUIT] section:
  4_151_4_152      Node_152         Node_10551038    146.85     0.0190     87.33      86.04      0          0

  
  ERROR 209: undefined object Node_153 at line 1155 of [CONDUIT] section:
  4_152_4_153      Node_153         Node_10731055    144.09     0.0190     87.85      87.33      0          0

  
  ERROR 209: undefined object Node_154 at line 1156 of [CONDUIT] section:
  4_153_4_154      Node_154         Node_10991073    147.14     0.0190     88.16      87.85      0          0

  
  ERROR 209: undefined object Node_168 at line 1157 of [CONDUIT] section:
  4_169_4_168      Node_168         Node_10951048    334.67     0.0190     87.33      86.33      0          0

  
  ERROR 209: undefined object Node_2507 at line 1158 of [CONDUIT] section:
  2507             Node_2507        Node_10481014    317.11     0.0190     86.50      85.81      0          0

  
  ERROR 209: undefined object Node_2505 at line 1159 of [CONDUIT] section:
  2505             Node_2505        Node_10151014    38.01      0.0190     85.98      85.75      0          0

  
  ERROR 209: undefined object Node_160 at line 1160 of [CONDUIT] section:
  4_159_4_160      Node_160         Node_10351015    271.90     0.0190     86.86      86.02      0          0

  
  ERROR 209: undefined object Node_177 at line 1161 of [CONDUIT] section:
  4_169_4_177      Node_177         Node_11351095    281.37     0.0190     88.03      87.31      0          0

  
  ERROR 209: undefined object Node_178 at line 1162 of [CONDUIT] section:
  4_181_4_178      Node_178         Node_11811156    362.59     0.0190     95.35      88.55      0          0

  
  ERROR 209: undefined object Node_169 at line 1163 of [CONDUIT] section:
  4_170_4_169      Node_169         Node_10931095    334.62     0.0190     88.63      87.62      0          0

  
  ERROR 209: undefined object ? at line 1367 of [CONDUIT] section:
  3_15_3_14        ?                Node_11491117    319.50     0.0190     64.55      54.36      0          0

  
  Maximum error count exceeded.

  Analysis begun on:  Sat Mar  7 21:51:22 2026
  Analysis ended on:  Sat Mar  7 21:51:22 2026
  Total elapsed time: < 1 sec