
  EPA STORM WATER MANAGEMENT MODEL - VERSION 5.2 (Build 5.2.4)
  ------------------------------------------------------------

  
  ERROR 211: invalid number  at line 216 of [XSECT] section:
  ORIFICE          RECT_CLOSED  1.00       0          0          0          

  
  ERROR 211: invalid number  at line 217 of [XSECT] section:
  VVALVE           RECT_CLOSED  0          0          0          0          

  
  ERROR 211: invalid number  at line 218 of [XSECT] section:
  WEIR             RECT_OPEN    0          120.00     0          0          

  
  ERROR 211: invalid number  at line 219 of [XSECT] section:
  WEIR2            RECT_OPEN    0          6.00       0          0          


  Analysis begun on:  Sat Mar  7 21:51:34 2026
  Analysis ended on:  Sat Mar  7 21:51:34 2026
  Total elapsed time: < 1 sec