
  EPA STORM WATER MANAGEMENT MODEL - VERSION 5.2 (Build 5.2.4)
  ------------------------------------------------------------

  
  ERROR 209: undefined object ? at line 80 of [CONDUIT] section:
  C82470           ?                ?                2548.00    0.0140     483.00     456.77     0          0

  
  ERROR 211: invalid number  at line 114 of [XSECT] section:
  56               CIRCULAR     0          0          0          0          1

  
  ERROR 211: invalid number  at line 115 of [XSECT] section:
  C82471           RECT_OPEN    0          10.00      0          0          


  Analysis begun on:  Sat Mar  7 21:51:33 2026
  Analysis ended on:  Sat Mar  7 21:51:33 2026
  Total elapsed time: < 1 sec