
  EPA STORM WATER MANAGEMENT MODEL - VERSION 5.2 (Build 5.2.4)
  ------------------------------------------------------------

  
  ERROR 207: duplicate ID name MH at line 28 of [JUNC] section:
  MH               25.40      0          0          0          0

  
  ERROR 207: duplicate ID name MH at line 29 of [JUNC] section:
  MH               26.80      0          0          0          0

  
  ERROR 207: duplicate ID name MH at line 30 of [JUNC] section:
  MH               26.00      0          0          0          0

  
  ERROR 207: duplicate ID name Pond at line 37 of [STORAGE] section:
  Pond             25.73      -1.47      0          FUNCTIONAL 0 0          0


  Analysis begun on:  Sat Mar  7 21:51:24 2026
  Analysis ended on:  Sat Mar  7 21:51:24 2026
  Total elapsed time: < 1 sec