
  EPA STORM WATER MANAGEMENT MODEL - VERSION 5.2 (Build 5.2.4)
  ------------------------------------------------------------

  
  ERROR 209: undefined object ? at line 36 of [CONDUIT] section:
  204              ?                ?                0          0          0          0          0          0

  
  ERROR 209: undefined object ? at line 37 of [CONDUIT] section:
  206              ?                ?                0          0          0          0          0          0

  
  ERROR 209: undefined object ? at line 38 of [CONDUIT] section:
  208              ?                ?                0          0          0          0          0          0

  
  ERROR 209: undefined object ? at line 39 of [CONDUIT] section:
  210              ?                ?                0          0          0          0          0          0

  
  ERROR 209: undefined object ? at line 40 of [CONDUIT] section:
  212              ?                ?                0          0          0          0          0          0

  
  ERROR 209: undefined object ? at line 41 of [CONDUIT] section:
  214              ?                ?                0          0          0          0          0          0

  
  ERROR 209: undefined object ? at line 42 of [CONDUIT] section:
  216              ?                ?                0          0          0          0          0          0

  
  ERROR 209: undefined object ? at line 43 of [CONDUIT] section:
  218              ?                ?                0          0          0          0          0          0

  
  ERROR 211: invalid number  at line 48 of [XSECT] section:
  204              CIRCULAR     0          0          0          0          1

  
  ERROR 211: invalid number  at line 49 of [XSECT] section:
  206              CIRCULAR     0          0          0          0          1

  
  ERROR 211: invalid number  at line 50 of [XSECT] section:
  208              CIRCULAR     0          0          0          0          1

  
  ERROR 211: invalid number  at line 51 of [XSECT] section:
  210              CIRCULAR     0          0          0          0          1

  
  ERROR 211: invalid number  at line 52 of [XSECT] section:
  212              CIRCULAR     0          0          0          0          1

  
  ERROR 211: invalid number  at line 53 of [XSECT] section:
  214              CIRCULAR     0          0          0          0          1

  
  ERROR 211: invalid number  at line 54 of [XSECT] section:
  216              CIRCULAR     0          0          0          0          1

  
  ERROR 211: invalid number  at line 55 of [XSECT] section:
  218              CIRCULAR     0          0          0          0          1


  Analysis begun on:  Sat Mar  7 21:51:22 2026
  Analysis ended on:  Sat Mar  7 21:51:22 2026
  Total elapsed time: < 1 sec