
  EPA STORM WATER MANAGEMENT MODEL - VERSION 5.2 (Build 5.2.4)
  ------------------------------------------------------------

  
  ERROR 209: undefined object ? at line 38 of [CONDUIT] section:
  203              ?                ?                100.00     0.0140     0          0          0          0

  
  ERROR 209: undefined object ? at line 39 of [CONDUIT] section:
  205              ?                ?                100.00     0.0140     0          0          0          0

  
  ERROR 209: undefined object ? at line 40 of [CONDUIT] section:
  207              ?                ?                100.00     0.0140     0          0          0          0

  
  ERROR 209: undefined object ? at line 41 of [CONDUIT] section:
  209              ?                ?                100.00     0.0140     0          0          0          0

  
  ERROR 209: undefined object ? at line 42 of [CONDUIT] section:
  211              ?                ?                100.00     0.0140     0          0          0          0

  
  ERROR 209: undefined object ? at line 43 of [CONDUIT] section:
  213              ?                ?                100.00     0.0140     0          0          0          0

  
  ERROR 209: undefined object ? at line 44 of [CONDUIT] section:
  215              ?                ?                100.00     0.0140     0          0          0          0

  
  ERROR 209: undefined object ? at line 45 of [CONDUIT] section:
  216              ?                ?                100.00     0.0140     0          0          0          0

  
  ERROR 209: undefined object ? at line 46 of [CONDUIT] section:
  218              ?                ?                100.00     0.0140     0          0          0          0


  Analysis begun on:  Sat Mar  7 21:51:32 2026
  Analysis ended on:  Sat Mar  7 21:51:32 2026
  Total elapsed time: < 1 sec