
  EPA STORM WATER MANAGEMENT MODEL - VERSION 5.2 (Build 5.2.4)
  ------------------------------------------------------------

  
  ERROR 207: duplicate ID name OSU at line 434 of [JUNC] section:
  OSU              866.00     0          0          0          0


  Analysis begun on:  Sat Mar  7 21:51:32 2026
  Analysis ended on:  Sat Mar  7 21:51:32 2026
  Total elapsed time: < 1 sec