
  EPA STORM WATER MANAGEMENT MODEL - VERSION 5.2 (Build 5.2.4)
  ------------------------------------------------------------

  
  ERROR 207: duplicate ID name 206.1 at line 52 of [ORIFICE] section:
  206.1            point            Junction         SIDE       0          0.650      NO       0


  Analysis begun on:  Sat Mar  7 21:51:34 2026
  Analysis ended on:  Sat Mar  7 21:51:34 2026
  Total elapsed time: < 1 sec