
  EPA STORM WATER MANAGEMENT MODEL - VERSION 5.2 (Build 5.2.4)
  ------------------------------------------------------------

  
  ERROR 209: undefined object ? at line 30 of [CONDUIT] section:
  204              ?                ?                660.00     0.0400     100.00     99.00      0          0

  
  ERROR 209: undefined object ? at line 31 of [CONDUIT] section:
  238              ?                ?                0          0          0          0          0          0

  
  ERROR 211: invalid number  at line 36 of [XSECT] section:
  204              POWER        0.20       660.00     0          0          1

  
  ERROR 211: invalid number  at line 37 of [XSECT] section:
  238              CIRCULAR     0          0          0          0          1


  Analysis begun on:  Sat Mar  7 21:51:25 2026
  Analysis ended on:  Sat Mar  7 21:51:25 2026
  Total elapsed time: < 1 sec