
  EPA STORM WATER MANAGEMENT MODEL - VERSION 5.2 (Build 5.2.4)
  ------------------------------------------------------------

  
  ERROR 211: invalid number  at line 211 of [XSECT] section:
  gate             RECT_CLOSED  2.67       0          0          0          

  
  ERROR 211: invalid number  at line 212 of [XSECT] section:
  294.1            RECT_OPEN    0          100.00     0          0          

  
  ERROR 211: invalid number  at line 213 of [XSECT] section:
  weir             RECT_OPEN    0          6.00       0          0          


  Analysis begun on:  Sat Mar  7 21:51:26 2026
  Analysis ended on:  Sat Mar  7 21:51:26 2026
  Total elapsed time: < 1 sec