
  EPA STORM WATER MANAGEMENT MODEL - VERSION 5.2 (Build 5.2.4)
  ------------------------------------------------------------

  
  ERROR 207: duplicate ID name 0 at line 27 of [JUNC] section:
  0                56.00      0          0          0          0

  
  ERROR 207: duplicate ID name 0 at line 28 of [JUNC] section:
  0                55.60      0          0          0          0

  
  ERROR 207: duplicate ID name 0 at line 29 of [JUNC] section:
  0                55.50      0          0          0          0

  
  ERROR 207: duplicate ID name 0 at line 30 of [JUNC] section:
  0                57.00      0          0          0          0

  
  ERROR 207: duplicate ID name 0 at line 31 of [JUNC] section:
  0                55.00      0          0          0          0

  
  ERROR 207: duplicate ID name 0 at line 32 of [JUNC] section:
  0                56.00      0          0          0          0

  
  ERROR 207: duplicate ID name 0 at line 37 of [STORAGE] section:
  0                58.00      0          0          FUNCTIONAL 0 0          0

  
  ERROR 207: duplicate ID name 0 at line 38 of [STORAGE] section:
  0                57.00      0          0          FUNCTIONAL 0 0          0

  
  ERROR 207: duplicate ID name 0 at line 39 of [STORAGE] section:
  0                56.50      0          0          FUNCTIONAL 0 0          0

  
  ERROR 207: duplicate ID name 0 at line 40 of [STORAGE] section:
  0                56.50      0          0          FUNCTIONAL 0 0          0

  
  ERROR 207: duplicate ID name 0 at line 41 of [STORAGE] section:
  0                55.00      0          0          FUNCTIONAL 0 0          0

  
  ERROR 207: duplicate ID name 0 at line 42 of [STORAGE] section:
  0                56.50      0          0          FUNCTIONAL 0 0          0


  Analysis begun on:  Sat Mar  7 21:51:29 2026
  Analysis ended on:  Sat Mar  7 21:51:29 2026
  Total elapsed time: < 1 sec