
  EPA STORM WATER MANAGEMENT MODEL - VERSION 5.2 (Build 5.2.4)
  ------------------------------------------------------------

  
  ERROR 207: duplicate ID name POND at line 727 of [JUNC] section:
  POND             792.30     0          0          0          0

  
  ERROR 207: duplicate ID name P at line 730 of [JUNC] section:
  P                803.50     0          0          0          0


  Analysis begun on:  Sat Mar  7 21:51:32 2026
  Analysis ended on:  Sat Mar  7 21:51:32 2026
  Total elapsed time: < 1 sec