
  EPA STORM WATER MANAGEMENT MODEL - VERSION 5.2 (Build 5.2.4)
  ------------------------------------------------------------

  
  *************
  Element Count
  *************
  Number of rain gages ...... 0
  Number of subcatchments ... 0
  Number of nodes ........... 10
  Number of links ........... 14
  Number of pollutants ...... 0
  Number of land uses ....... 0
  
  
  ************
  Node Summary
  ************
                                           Invert      Max.    Ponded    External
  Name                 Type                 Elev.     Depth      Area    Inflow  
  -------------------------------------------------------------------------------
  238                  JUNCTION              9.99     10.01       0.0
  240                  JUNCTION              9.98     10.02       0.0
  Outfall              OUTFALL               9.97      4.00       0.0
  Duckpond             STORAGE              10.00     10.00       0.0    Yes
  202                  STORAGE              10.00     10.00       0.0
  203                  STORAGE              10.00     10.00       0.0
  204                  STORAGE              10.00     10.00       0.0
  205                  STORAGE              10.00     10.00       0.0
  206                  STORAGE              10.00     10.00       0.0
  207                  STORAGE              10.00     10.00       0.0
  
  
  ************
  Link Summary
  ************
  Name             From Node        To Node          Type            Length    %Slope Roughness
  ---------------------------------------------------------------------------------------------
  239              206              238              CONDUIT          100.0    0.0100    0.0140
  241              238              240              CONDUIT          100.0    0.0100    0.0140
  243              240              Outfall          CONDUIT          100.0    0.0100    0.0140
  ORIF#1           Duckpond         202              ORIFICE     
  ORIF#2           202              205              ORIFICE     
  ORIF#3           205              Duckpond         ORIFICE     
  ORIF#4           202              207              ORIFICE     
  ORIF#5           207              203              ORIFICE     
  ORIF#6           203              204              ORIFICE     
  ORIF#7           204              206              ORIFICE     
  ORIF#8           206              203              ORIFICE     
  ORIF#9           203              202              ORIFICE     
  ORIF#10          205              207              ORIFICE     
  ORIF#11          207              206              ORIFICE     
  
  
  *********************
  Cross Section Summary
  *********************
                                        Full     Full     Hyd.     Max.   No. of     Full
  Conduit          Shape               Depth     Area     Rad.    Width  Barrels     Flow
  ---------------------------------------------------------------------------------------
  239              TRAPEZOIDAL          4.00    32.00     2.09    12.00        1    55.52
  241              TRAPEZOIDAL          4.00    32.00     2.09    12.00        1    55.52
  243              TRAPEZOIDAL          4.00    32.00     2.09    12.00        1    55.52
  
  
  ****************
  Analysis Options
  ****************
  Flow Units ............... CFS
  Process Models:
    Rainfall/Runoff ........ NO
    RDII ................... NO
    Snowmelt ............... NO
    Groundwater ............ NO
    Flow Routing ........... YES
    Ponding Allowed ........ NO
    Water Quality .......... NO
  Flow Routing Method ...... DYNWAVE
  Surcharge Method ......... EXTRAN
  Starting Date ............ 01/01/1996 00:00:00
  Ending Date .............. 01/01/1996 02:00:00
  Antecedent Dry Days ...... 0.0
  Report Time Step ......... 00:00:10
  Routing Time Step ........ 10.00 sec
  Variable Time Step ....... YES
  Maximum Trials ........... 8
  Number of Threads ........ 1
  Head Tolerance ........... 0.005000 ft
  
  
  **************************        Volume        Volume
  Flow Routing Continuity        acre-feet      10^6 gal
  **************************     ---------     ---------
  Dry Weather Inflow .......         0.000         0.000
  Wet Weather Inflow .......         0.000         0.000
  Groundwater Inflow .......         0.000         0.000
  RDII Inflow ..............         0.000         0.000
  External Inflow ..........         6.910         2.252
  External Outflow .........         0.759         0.247
  Flooding Loss ............         0.000         0.000
  Evaporation Loss .........         0.000         0.000
  Exfiltration Loss ........         0.000         0.000
  Initial Stored Volume ....         4.763         1.552
  Final Stored Volume ......        10.916         3.557
  Continuity Error (%) .....        -0.017
  
  
  *************************
  Highest Continuity Errors
  *************************
  Node 238 (-5.46%)
  Node 240 (-5.21%)
  Node 206 (-2.53%)
  
  
  ***************************
  Time-Step Critical Elements
  ***************************
  Link 243 (14.81%)
  
  
  ********************************
  Highest Flow Instability Indexes
  ********************************
  All links are stable.
  
  
  *********************************
  Most Frequent Nonconverging Nodes
  *********************************
  Convergence obtained at all time steps.
  
  
  *************************
  Routing Time Step Summary
  *************************
  Minimum Time Step           :     0.97 sec
  Average Time Step           :     9.52 sec
  Maximum Time Step           :    10.00 sec
  % of Time in Steady State   :     0.00
  Average Iterations per Step :     2.02
  % of Steps Not Converging   :     0.00
  Time Step Frequencies       :
     10.000 -  5.493 sec      :    99.87 %
      5.493 -  3.017 sec      :     0.00 %
      3.017 -  1.657 sec      :     0.00 %
      1.657 -  0.910 sec      :     0.13 %
      0.910 -  0.500 sec      :     0.00 %
  
  
  ******************
  Node Depth Summary
  ******************
  
  ---------------------------------------------------------------------------------
                                 Average  Maximum  Maximum  Time of Max    Reported
                                   Depth    Depth      HGL   Occurrence   Max Depth
  Node                 Type         Feet     Feet     Feet  days hr:min        Feet
  ---------------------------------------------------------------------------------
  238                  JUNCTION     0.36     2.51    12.50     0  00:00        2.47
  240                  JUNCTION     0.33     2.52    12.50     0  00:00        2.30
  Outfall              OUTFALL      0.23     1.82    11.79     0  00:02        1.81
  Duckpond             STORAGE      4.00     5.53    15.53     0  02:00        5.53
  202                  STORAGE      2.78     3.31    13.31     0  02:00        3.31
  203                  STORAGE      2.50     2.54    12.54     0  02:00        2.54
  204                  STORAGE      2.50     2.50    12.50     0  00:00        2.50
  205                  STORAGE      2.82     3.36    13.36     0  02:00        3.36
  206                  STORAGE      0.37     2.50    12.50     0  00:00        2.50
  207                  STORAGE      2.51     2.64    12.64     0  02:00        2.64
  
  
  *******************
  Node Inflow Summary
  *******************
  
  -------------------------------------------------------------------------------------------------
                                  Maximum  Maximum                  Lateral       Total        Flow
                                  Lateral    Total  Time of Max      Inflow      Inflow     Balance
                                   Inflow   Inflow   Occurrence      Volume      Volume       Error
  Node                 Type           CFS      CFS  days hr:min    10^6 gal    10^6 gal     Percent
  -------------------------------------------------------------------------------------------------
  238                  JUNCTION      0.00    72.16     0  00:01           0       0.223      -5.174
  240                  JUNCTION      0.00    69.27     0  00:01           0       0.235      -4.949
  Outfall              OUTFALL       0.00    70.45     0  00:02           0       0.247       0.000
  Duckpond             STORAGE      50.00    50.00     0  00:30        2.25        2.47      -0.007
  202                  STORAGE       0.00    10.57     0  02:00           0       0.508       0.011
  203                  STORAGE       0.00     1.57     0  02:00           0       0.228       0.006
  204                  STORAGE       0.00     0.00     0  00:00           0       0.217       0.000
  205                  STORAGE       0.00     9.47     0  02:00           0       0.522       0.012
  206                  STORAGE       0.00     0.00     0  00:00           0       0.217      -2.465
  207                  STORAGE       0.00     4.79     0  02:00           0       0.253       0.018
  
  
  **********************
  Node Surcharge Summary
  **********************
  
  Surcharging occurs when water rises above the top of the highest conduit.
  ---------------------------------------------------------------------
                                               Max. Height   Min. Depth
                                   Hours       Above Crown    Below Rim
  Node                 Type      Surcharged           Feet         Feet
  ---------------------------------------------------------------------
  Duckpond             STORAGE         1.40          2.030        4.470
  
  
  *********************
  Node Flooding Summary
  *********************
  
  No nodes were flooded.
  
  
  **********************
  Storage Volume Summary
  **********************
  
  ------------------------------------------------------------------------------------------------
                         Average    Avg   Evap  Exfil     Maximum    Max    Time of Max    Maximum
                          Volume   Pcnt   Pcnt   Pcnt      Volume   Pcnt     Occurrence    Outflow
  Storage Unit          1000 ftł   Full   Loss   Loss    1000 ftł   Full    days hr:min        CFS
  ------------------------------------------------------------------------------------------------
  Duckpond               125.976   17.6    0.0    0.0     251.906   35.3       0  02:00      19.03
  202                     40.138    5.6    0.0    0.0      63.738    8.9       0  02:00       4.44
  203                     29.201    4.1    0.0    0.0      30.535    4.3       0  02:00       0.00
  204                     29.076    4.1    0.0    0.0      29.076    4.1       0  00:00       0.00
  205                     41.665    5.8    0.0    0.0      66.390    9.3       0  02:00       2.94
  206                      2.164    0.3    0.0    0.0      29.076    4.1       0  00:00      72.16
  207                     29.512    4.1    0.0    0.0      33.837    4.7       0  02:00       0.00
  
  
  ***********************
  Outfall Loading Summary
  ***********************
  
  -----------------------------------------------------------
                         Flow       Avg       Max       Total
                         Freq      Flow      Flow      Volume
  Outfall Node           Pcnt       CFS       CFS    10^6 gal
  -----------------------------------------------------------
  Outfall              100.00      6.37     70.45       0.247
  -----------------------------------------------------------
  System               100.00      6.37     70.45       0.247
  
  
  ********************
  Link Flow Summary
  ********************
  
  -----------------------------------------------------------------------------
                                 Maximum  Time of Max   Maximum    Max/    Max/
                                  |Flow|   Occurrence   |Veloc|    Full    Full
  Link                 Type          CFS  days hr:min    ft/sec    Flow   Depth
  -----------------------------------------------------------------------------
  239                  CONDUIT     72.16     0  00:01      4.91    1.30    0.63
  241                  CONDUIT     69.27     0  00:01      5.14    1.25    0.63
  243                  CONDUIT     70.45     0  00:02      6.14    1.27    0.49
  ORIF#1               ORIFICE      9.57     0  02:00                      1.00
  ORIF#2               ORIFICE      1.01     0  02:00                      0.71
  ORIF#3               ORIFICE      9.47     0  02:00                          
  ORIF#4               ORIFICE      2.87     0  02:00                          
  ORIF#5               ORIFICE      0.00     0  00:00                      0.00
  ORIF#6               ORIFICE      0.00     0  00:00                      0.00
  ORIF#7               ORIFICE      0.00     0  00:00                      0.00
  ORIF#8               ORIFICE      0.00     0  00:00                      0.00
  ORIF#9               ORIFICE      1.57     0  02:00                      0.62
  ORIF#10              ORIFICE      1.93     0  02:00                      0.71
  ORIF#11              ORIFICE      0.00     0  00:00                      0.00
  
  
  ***************************
  Flow Classification Summary
  ***************************
  
  -------------------------------------------------------------------------------------
                      Adjusted    ---------- Fraction of Time in Flow Class ---------- 
                       /Actual         Up    Down  Sub   Sup   Up    Down  Norm  Inlet 
  Conduit               Length    Dry  Dry   Dry   Crit  Crit  Crit  Crit  Ltd   Ctrl  
  -------------------------------------------------------------------------------------
  239                     1.00   0.00  0.00  0.00  1.00  0.00  0.00  0.00  0.00  0.00
  241                     1.00   0.00  0.00  0.00  1.00  0.00  0.00  0.00  0.00  0.00
  243                     1.00   0.00  0.00  0.00  1.00  0.00  0.00  0.00  0.00  0.00
  
  
  *************************
  Conduit Surcharge Summary
  *************************
  
  ----------------------------------------------------------------------------
                                                           Hours        Hours 
                         --------- Hours Full --------   Above Full   Capacity
  Conduit                Both Ends  Upstream  Dnstream   Normal Flow   Limited
  ----------------------------------------------------------------------------
  239                         0.01      0.01      0.01      0.04         0.01
  241                         0.01      0.01      0.01      0.04         0.01
  243                         0.01      0.01      0.01      0.04         0.01
  

  Analysis begun on:  Sat Mar  7 21:51:22 2026
  Analysis ended on:  Sat Mar  7 21:51:22 2026
  Total elapsed time: < 1 sec