
  EPA STORM WATER MANAGEMENT MODEL - VERSION 5.2 (Build 5.2.4)
  ------------------------------------------------------------

  
  ERROR 209: undefined object 13.60 at line 87 of [XSECT] section:
  490              IRREGULAR    13.60      0          0          0          1

  
  ERROR 209: undefined object 16.00 at line 88 of [XSECT] section:
  501              IRREGULAR    16.00      0          0          0          1

  
  ERROR 209: undefined object 16.60 at line 89 of [XSECT] section:
  504              IRREGULAR    16.60      0          0          0          1

  
  ERROR 209: undefined object 19.00 at line 90 of [XSECT] section:
  506              IRREGULAR    19.00      0          0          0          1

  
  ERROR 211: invalid number  at line 110 of [XSECT] section:
  MUL1             RECT_OPEN    0          100.00     0          0          

  
  ERROR 211: invalid number  at line 111 of [XSECT] section:
  MUL3             RECT_OPEN    0          20.67      0          0          


  Analysis begun on:  Sat Mar  7 21:51:33 2026
  Analysis ended on:  Sat Mar  7 21:51:33 2026
  Total elapsed time: < 1 sec