
  EPA STORM WATER MANAGEMENT MODEL - VERSION 5.2 (Build 5.2.4)
  ------------------------------------------------------------

  
  ERROR 209: undefined object ? at line 39 of [CONDUIT] section:
  204              ?                ?                100.00     0.0140     40.00      40.00      0          0

  
  ERROR 209: undefined object ? at line 40 of [CONDUIT] section:
  206              ?                ?                100.00     0.0140     40.00      40.00      0          0

  
  ERROR 209: undefined object ? at line 41 of [CONDUIT] section:
  208              ?                ?                100.00     0.0140     40.00      40.00      0          0

  
  ERROR 209: undefined object ? at line 42 of [CONDUIT] section:
  210              ?                ?                100.00     0.0140     40.00      40.00      0          0

  
  ERROR 209: undefined object ? at line 43 of [CONDUIT] section:
  212              ?                ?                100.00     0.0140     40.00      40.00      0          0

  
  ERROR 209: undefined object ? at line 44 of [CONDUIT] section:
  214              ?                ?                100.00     0.0140     40.00      40.00      0          0

  
  ERROR 209: undefined object ? at line 45 of [CONDUIT] section:
  216              ?                ?                100.00     0.0140     40.00      40.00      0          0

  
  ERROR 209: undefined object ? at line 46 of [CONDUIT] section:
  218              ?                ?                100.00     0.0140     40.00      40.00      0          0

  
  ERROR 209: undefined object ? at line 47 of [CONDUIT] section:
  220              ?                ?                100.00     0.0140     40.00      40.00      0          0


  Analysis begun on:  Sat Mar  7 21:51:27 2026
  Analysis ended on:  Sat Mar  7 21:51:27 2026
  Total elapsed time: < 1 sec