
  EPA STORM WATER MANAGEMENT MODEL - VERSION 5.2 (Build 5.2.4)
  ------------------------------------------------------------

  
  ERROR 209: undefined object 4.00 at line 41 of [XSECT] section:
  upstream         IRREGULAR    4.00       0          0          0          1

  
  ERROR 209: undefined object 4.00 at line 43 of [XSECT] section:
  dnstream         IRREGULAR    4.00       0          0          0          1


  Analysis begun on:  Sat Mar  7 21:51:22 2026
  Analysis ended on:  Sat Mar  7 21:51:22 2026
  Total elapsed time: < 1 sec