
  EPA STORM WATER MANAGEMENT MODEL - VERSION 5.2 (Build 5.2.4)
  ------------------------------------------------------------

  
  ERROR 209: undefined object ? at line 41 of [CONDUIT] section:
  205              ?                ?                50.00      0.0140     100.00     99.00      0          0

  
  ERROR 209: undefined object ? at line 43 of [CONDUIT] section:
  207              ?                ?                50.00      0.0140     100.00     99.00      0          0

  
  ERROR 209: undefined object ? at line 44 of [CONDUIT] section:
  209              ?                ?                50.00      0.0140     100.00     99.00      0          0


  Analysis begun on:  Sat Mar  7 21:51:23 2026
  Analysis ended on:  Sat Mar  7 21:51:23 2026
  Total elapsed time: < 1 sec