
  EPA STORM WATER MANAGEMENT MODEL - VERSION 5.2 (Build 5.2.4)
  ------------------------------------------------------------

  Example 3 of Extran Manual - 
  Sump Orifice 
  
  *************
  Element Count
  *************
  Number of rain gages ...... 0
  Number of subcatchments ... 0
  Number of nodes ........... 10
  Number of links ........... 9
  Number of pollutants ...... 0
  Number of land uses ....... 0
  
  
  ************
  Node Summary
  ************
                                           Invert      Max.    Ponded    External
  Name                 Type                 Elev.     Depth      Area    Inflow  
  -------------------------------------------------------------------------------
  80408                JUNCTION            124.60     13.40       0.0    Yes
  80608                JUNCTION            118.30     16.70       0.0
  81009                JUNCTION            128.20      8.80       0.0    Yes
  81309                JUNCTION            117.50     12.50       0.0
  82309                JUNCTION            112.30     42.70       0.0    Yes
  10309                JUNCTION            101.60      9.40       0.0
  15009                JUNCTION            111.50     13.50       0.0
  16009                JUNCTION            102.00     18.00       0.0
  16109                JUNCTION            102.80     22.20       0.0
  10208                OUTFALL              89.90      0.00       0.0
  
  
  ************
  Link Summary
  ************
  Name             From Node        To Node          Type            Length    %Slope Roughness
  ---------------------------------------------------------------------------------------------
  8040             80408            80608            CONDUIT         1800.0    0.3500    0.0150
  8060             80608            82309            CONDUIT         2075.0    0.1831    0.0150
  8100             81009            81309            CONDUIT         5100.0    0.2098    0.0150
  8130             81309            15009            CONDUIT         3500.0    0.1714    0.0150
  1030             10309            10208            CONDUIT         4500.0    0.2600    0.0160
  1570             15009            16009            CONDUIT         5000.0    0.1900    0.0154
  1600             16109            16009            CONDUIT          500.0    0.1600    0.0150
  1630             16009            10309            CONDUIT          300.0    0.1333    0.0150
  1602             82309            16109            CONDUIT         5000.0    0.1900    0.0340
  
  
  *********************
  Cross Section Summary
  *********************
                                        Full     Full     Hyd.     Max.   No. of     Full
  Conduit          Shape               Depth     Area     Rad.    Width  Barrels     Flow
  ---------------------------------------------------------------------------------------
  8040             DUMMY                0.00     0.00     0.00     0.00        1     0.00
  8060             CIRCULAR             3.00     7.07     0.75     3.00        1    24.74
  8100             DUMMY                0.00     0.00     0.00     0.00        1     0.00
  8130             CIRCULAR             3.00     7.07     0.75     3.00        1    23.93
  1030             DUMMY                0.00     0.00     0.00     0.00        1     0.00
  1570             DUMMY                0.00     0.00     0.00     0.00        1     0.00
  1600             CIRCULAR             3.00     7.07     0.75     3.00        1    23.12
  1630             CIRCULAR             3.00     7.07     0.75     3.00        1    21.11
  1602             DUMMY                0.00     0.00     0.00     0.00        1     0.00
  
  
  ****************
  Analysis Options
  ****************
  Flow Units ............... CFS
  Process Models:
    Rainfall/Runoff ........ NO
    RDII ................... NO
    Snowmelt ............... NO
    Groundwater ............ NO
    Flow Routing ........... YES
    Ponding Allowed ........ NO
    Water Quality .......... NO
  Flow Routing Method ...... DYNWAVE
  Surcharge Method ......... EXTRAN
  Starting Date ............ 01/01/2002 00:00:00
  Ending Date .............. 01/01/2002 08:00:00
  Antecedent Dry Days ...... 0.0
  Report Time Step ......... 00:05:00
  Routing Time Step ........ 20.00 sec
  Variable Time Step ....... NO
  Maximum Trials ........... 8
  Number of Threads ........ 1
  Head Tolerance ........... 0.005000 ft
  
  
  **************************        Volume        Volume
  Flow Routing Continuity        acre-feet      10^6 gal
  **************************     ---------     ---------
  Dry Weather Inflow .......         0.000         0.000
  Wet Weather Inflow .......         0.000         0.000
  Groundwater Inflow .......         0.000         0.000
  RDII Inflow ..............         0.000         0.000
  External Inflow ..........        33.470        10.907
  External Outflow .........        21.038         6.855
  Flooding Loss ............        12.291         4.005
  Evaporation Loss .........         0.000         0.000
  Exfiltration Loss ........         0.000         0.000
  Initial Stored Volume ....         0.000         0.000
  Final Stored Volume ......         0.166         0.054
  Continuity Error (%) .....        -0.075
  
  
  *************************
  Highest Continuity Errors
  *************************
  Node 80608 (1.30%)
  
  
  ********************************
  Highest Flow Instability Indexes
  ********************************
  All links are stable.
  
  
  *********************************
  Most Frequent Nonconverging Nodes
  *********************************
  Node 10208 (4.65%)
  Node 16009 (2.92%)
  Node 16109 (2.85%)
  Node 82309 (2.50%)
  Node 80608 (1.46%)
  
  
  *************************
  Routing Time Step Summary
  *************************
  Minimum Time Step           :    20.00 sec
  Average Time Step           :    20.00 sec
  Maximum Time Step           :    20.00 sec
  % of Time in Steady State   :     0.00
  Average Iterations per Step :     2.38
  % of Steps Not Converging   :     4.65
  
  
  ******************
  Node Depth Summary
  ******************
  
  ---------------------------------------------------------------------------------
                                 Average  Maximum  Maximum  Time of Max    Reported
                                   Depth    Depth      HGL   Occurrence   Max Depth
  Node                 Type         Feet     Feet     Feet  days hr:min        Feet
  ---------------------------------------------------------------------------------
  80408                JUNCTION     0.00     0.00   124.60     0  00:00        0.00
  80608                JUNCTION     5.06    16.70   135.00     0  00:16       14.11
  81009                JUNCTION     0.00     0.00   128.20     0  00:00        0.00
  81309                JUNCTION     4.74    12.50   130.00     0  00:14       12.50
  82309                JUNCTION     5.78     9.73   122.03     0  00:16        7.54
  10309                JUNCTION     0.27     0.71   102.31     0  02:06        0.71
  15009                JUNCTION     0.01     0.02   111.52     0  00:14        0.02
  16009                JUNCTION     6.94    18.00   120.00     0  00:14       18.00
  16109                JUNCTION     8.40    22.20   125.00     0  00:14       22.20
  10208                OUTFALL      0.00     0.00    89.90     0  00:00        0.00
  
  
  *******************
  Node Inflow Summary
  *******************
  
  -------------------------------------------------------------------------------------------------
                                  Maximum  Maximum                  Lateral       Total        Flow
                                  Lateral    Total  Time of Max      Inflow      Inflow     Balance
                                   Inflow   Inflow   Occurrence      Volume      Volume       Error
  Node                 Type           CFS      CFS  days hr:min    10^6 gal    10^6 gal     Percent
  -------------------------------------------------------------------------------------------------
  80408                JUNCTION     45.00    45.00     0  00:15        3.64        3.64       0.000
  80608                JUNCTION      0.00    45.00     0  00:15           0        3.64       1.322
  81009                JUNCTION     50.00    50.00     0  00:15        4.04        4.04       0.000
  81309                JUNCTION      0.00    50.00     0  00:15           0        4.04      -0.016
  82309                JUNCTION     40.00    85.05     0  00:17        3.23        6.82      -0.000
  10309                JUNCTION      0.00    82.70     0  02:06           0        6.85      -0.009
  15009                JUNCTION      0.00    28.19     0  00:24           0        2.38      -0.028
  16009                JUNCTION      0.00    86.00     0  00:24           0        7.16       0.015
  16109                JUNCTION      0.00    85.09     0  00:17           0        6.82      -0.009
  10208                OUTFALL       0.00    82.70     0  02:06           0        6.85       0.000
  
  
  **********************
  Node Surcharge Summary
  **********************
  
  Surcharging occurs when water rises above the top of the highest conduit.
  ---------------------------------------------------------------------
                                               Max. Height   Min. Depth
                                   Hours       Above Crown    Below Rim
  Node                 Type      Surcharged           Feet         Feet
  ---------------------------------------------------------------------
  80408                JUNCTION        8.00          0.000       13.400
  80608                JUNCTION        2.84         13.700        0.000
  81009                JUNCTION        8.00          0.000        8.800
  81309                JUNCTION        2.95          9.500        0.000
  82309                JUNCTION        2.79          4.534       32.966
  16009                JUNCTION        3.11         15.000        0.000
  16109                JUNCTION        3.09         19.200        0.000
  
  
  *********************
  Node Flooding Summary
  *********************
  
  Flooding refers to all water that overflows a node, whether it ponds or not.
  --------------------------------------------------------------------------
                                                             Total   Maximum
                                 Maximum   Time of Max       Flood    Ponded
                        Hours       Rate    Occurrence      Volume     Depth
  Node                 Flooded       CFS   days hr:min    10^6 gal      Feet
  --------------------------------------------------------------------------
  80608                   0.01     12.32      0  00:16       0.002     0.000
  81309                   2.88     22.70      0  00:14       1.662     0.000
  16009                   2.87     11.04      0  00:16       0.303     0.000
  16109                   2.86     27.27      0  00:17       2.037     0.000
  
  
  ***********************
  Outfall Loading Summary
  ***********************
  
  -----------------------------------------------------------
                         Flow       Avg       Max       Total
                         Freq      Flow      Flow      Volume
  Outfall Node           Pcnt       CFS       CFS    10^6 gal
  -----------------------------------------------------------
  10208                 99.93     31.84     82.70       6.855
  -----------------------------------------------------------
  System                99.93     31.84     82.70       6.855
  
  
  ********************
  Link Flow Summary
  ********************
  
  -----------------------------------------------------------------------------
                                 Maximum  Time of Max   Maximum    Max/    Max/
                                  |Flow|   Occurrence   |Veloc|    Full    Full
  Link                 Type          CFS  days hr:min    ft/sec    Flow   Depth
  -----------------------------------------------------------------------------
  8040                 DUMMY       45.00     0  00:15
  8060                 CONDUIT     45.05     0  00:17      6.37    1.82    1.00
  8100                 DUMMY       50.00     0  00:15
  8130                 CONDUIT     28.19     0  00:24      7.92    1.18    0.50
  1030                 DUMMY       82.70     0  02:06
  1570                 DUMMY       28.19     0  00:24
  1600                 CONDUIT     57.81     0  00:23      8.18    2.50    1.00
  1630                 CONDUIT     82.70     0  02:06     18.14    3.92    0.62
  1602                 DUMMY       85.09     0  00:17
  
  
  ***************************
  Flow Classification Summary
  ***************************
  
  -------------------------------------------------------------------------------------
                      Adjusted    ---------- Fraction of Time in Flow Class ---------- 
                       /Actual         Up    Down  Sub   Sup   Up    Down  Norm  Inlet 
  Conduit               Length    Dry  Dry   Dry   Crit  Crit  Crit  Crit  Ltd   Ctrl  
  -------------------------------------------------------------------------------------
  8060                    1.00   0.00  0.00  0.00  0.97  0.00  0.00  0.03  0.61  0.00
  8130                    1.00   0.00  0.00  0.00  0.33  0.66  0.00  0.00  0.00  0.00
  1600                    1.00   0.00  0.00  0.00  1.00  0.00  0.00  0.00  0.57  0.00
  1630                    1.00   0.00  0.00  0.00  0.29  0.71  0.00  0.00  0.00  0.00
  
  
  *************************
  Conduit Surcharge Summary
  *************************
  
  ----------------------------------------------------------------------------
                                                           Hours        Hours 
                         --------- Hours Full --------   Above Full   Capacity
  Conduit                Both Ends  Upstream  Dnstream   Normal Flow   Limited
  ----------------------------------------------------------------------------
  8060                        2.78      2.85      2.78      2.91         2.78
  8130                        0.01      2.95      0.01      2.90         0.01
  1600                        3.08      3.08      3.11      3.08         3.06
  1630                        0.01      3.11      0.01      3.17         0.01
  

  Analysis begun on:  Sun Mar  8 02:18:28 2026
  Analysis ended on:  Sun Mar  8 02:18:28 2026
  Total elapsed time: < 1 sec