
  EPA STORM WATER MANAGEMENT MODEL - VERSION 5.2 (Build 5.2.4)
  ------------------------------------------------------------

  
  ERROR 211: invalid number  at line 62 of [XSECT] section:
  3                CIRCULAR     0          0          0          0          1

  
  ERROR 211: invalid number  at line 63 of [XSECT] section:
  inter1           CIRCULAR     0          0          0          0          1

  
  ERROR 211: invalid number  at line 64 of [XSECT] section:
  inter2           CIRCULAR     0          0          0          0          1

  
  ERROR 211: invalid number  at line 65 of [XSECT] section:
  channel          CIRCULAR     0          0          0          0          1

  
  ERROR 211: invalid number  at line 66 of [XSECT] section:
  218.1            CIRCULAR     0          0          0          0          1

  
  ERROR 211: invalid number  at line 67 of [XSECT] section:
  19               CIRCULAR     0          0          0          0          1

  
  ERROR 211: invalid number  at line 68 of [XSECT] section:
  205.1            RECT_OPEN    0          2.00       0          0          

  
  ERROR 211: invalid number  at line 69 of [XSECT] section:
  regulator        RECT_OPEN    0          0          0          0          


  Analysis begun on:  Sat Mar  7 21:51:33 2026
  Analysis ended on:  Sat Mar  7 21:51:33 2026
  Total elapsed time: < 1 sec