
  EPA STORM WATER MANAGEMENT MODEL - VERSION 5.2 (Build 5.2.4)
  ------------------------------------------------------------

  
  ERROR 207: duplicate ID name Sta at line 28 of [JUNC] section:
  Sta              165.94     0          0          0          0

  
  ERROR 207: duplicate ID name Sta at line 29 of [JUNC] section:
  Sta              158.58     0          0          0          0

  
  ERROR 207: duplicate ID name Sta at line 30 of [JUNC] section:
  Sta              146.00     0          0          0          0

  
  ERROR 207: duplicate ID name 205.1 at line 43 of [CONDUIT] section:
  205.1            11               Sta              350.00     0.0130     159.09     146.78     0          0


  Analysis begun on:  Sat Mar  7 21:51:23 2026
  Analysis ended on:  Sat Mar  7 21:51:23 2026
  Total elapsed time: < 1 sec