
  EPA STORM WATER MANAGEMENT MODEL - VERSION 5.2 (Build 5.2.4)
  ------------------------------------------------------------

  
  ERROR 207: duplicate ID name DROP at line 37 of [STORAGE] section:
  DROP             581.00     0          0          FUNCTIONAL 19.60 0          0

  
  ERROR 207: duplicate ID name DEAIR at line 46 of [CONDUIT] section:
  DEAIR            DROP             003              118.00     0.0130     433.01     432.99     0          0


  Analysis begun on:  Sat Mar  7 21:51:33 2026
  Analysis ended on:  Sat Mar  7 21:51:33 2026
  Total elapsed time: < 1 sec