
  EPA STORM WATER MANAGEMENT MODEL - VERSION 5.2 (Build 5.2.4)
  ------------------------------------------------------------

  
  ERROR 209: undefined object DITCH_OF at line 33 of [CONDUIT] section:
  PIPE_OF          DITCH_OF         RIVER            1057.00    0.0130     484.44     474.71     0          0


  Analysis begun on:  Sat Mar  7 21:51:32 2026
  Analysis ended on:  Sat Mar  7 21:51:32 2026
  Total elapsed time: < 1 sec