
  EPA STORM WATER MANAGEMENT MODEL - VERSION 5.2 (Build 5.2.4)
  ------------------------------------------------------------

  
  ERROR 209: undefined object OVFLW at line 219 of [CONDUIT] section:
  48RCP            OVFLW            Node_16301631    74.00      0.0140     122.50     122.00     0          0

  
  ERROR 209: undefined object ? at line 220 of [CONDUIT] section:
  4-1              ?                Node_16331630    196.50     0          136.80     130.00     0          0

  
  ERROR 209: undefined object 8"pvc at line 221 of [CONDUIT] section:
  18"rcp           8"pvc            Node_16341633    18.50      0          148.00     146.80     0          0

  
  ERROR 209: undefined object ? at line 222 of [CONDUIT] section:
  6-5              ?                Node_16351634    27.00      0          144.50     144.20     0          0

  
  ERROR 209: undefined object ? at line 223 of [CONDUIT] section:
  7-5              ?                Node_16361634    168.00     0          142.90     142.60     0          0

  
  ERROR 209: undefined object ? at line 224 of [CONDUIT] section:
  8-7              ?                Node_16371636    167.00     0          143.20     142.90     0          0

  
  ERROR 209: undefined object ? at line 225 of [CONDUIT] section:
  9-8              ?                Node_16381637    338.00     0          143.80     143.20     0          0

  
  ERROR 209: undefined object ? at line 226 of [CONDUIT] section:
  10-9             ?                Node_16391638    253.00     0          144.20     143.80     0          0

  
  ERROR 209: undefined object ? at line 227 of [CONDUIT] section:
  11-10            ?                Node_16401639    51.00      0          146.50     146.20     0          0

  
  ERROR 209: undefined object ? at line 228 of [CONDUIT] section:
  12-10            ?                Node_16411639    396.00     0          145.60     144.70     0          0

  
  ERROR 209: undefined object ? at line 229 of [CONDUIT] section:
  13-12            ?                Node_16421641    101.00     0          145.80     145.60     0          0

  
  ERROR 209: undefined object ? at line 230 of [CONDUIT] section:
  14-13            ?                Node_16431642    354.00     0          147.20     146.30     0          0

  
  ERROR 209: undefined object ? at line 231 of [CONDUIT] section:
  15-14            ?                Node_16441643    355.00     0          148.10     147.20     0          0

  
  ERROR 209: undefined object ? at line 232 of [CONDUIT] section:
  16-17            ?                Node_16451646    49.00      0          150.20     149.90     0          0

  
  ERROR 209: undefined object ? at line 233 of [CONDUIT] section:
  17-15            ?                Node_16461644    299.00     0          148.90     148.10     0          0

  
  ERROR 209: undefined object ? at line 234 of [CONDUIT] section:
  18-17            ?                Node_16471646    26.00      0          149.30     148.90     0          0

  
  ERROR 209: undefined object ? at line 235 of [CONDUIT] section:
  19-18            ?                Node_16481647    25.00      0          150.70     150.30     0          0

  
  ERROR 209: undefined object ? at line 236 of [CONDUIT] section:
  5-20             ?                Node_16341649    263.00     0          141.60     141.30     0          0

  
  ERROR 209: undefined object ? at line 237 of [CONDUIT] section:
  20-21            ?                Node_16491650    358.00     0          141.30     141.00     0          0

  
  ERROR 209: undefined object ? at line 238 of [CONDUIT] section:
  21-22            ?                Node_16501651    310.00     0          141.00     140.60     0          0

  
  ERROR 209: undefined object ? at line 239 of [CONDUIT] section:
  22-23            ?                Node_16511652    95.00      0          140.60     140.50     0          0

  
  ERROR 209: undefined object ? at line 240 of [CONDUIT] section:
  23-24            ?                Node_16521653    140.00     0          140.50     140.30     0          0

  
  ERROR 209: undefined object ? at line 241 of [CONDUIT] section:
  24-25            ?                Node_16531654    124.00     0          140.30     140.20     0          0

  
  ERROR 209: undefined object ? at line 242 of [CONDUIT] section:
  25-26            ?                Node_16541655    200.00     0          140.20     140.00     0          0

  
  ERROR 209: undefined object ? at line 243 of [CONDUIT] section:
  3-26             ?                Node_16321655    69.00      0.0140     140.05     140.00     0          0

  
  ERROR 209: undefined object ? at line 244 of [CONDUIT] section:
  28-3             ?                Node_16571632    101.00     0.0140     137.00     136.50     0          0

  
  ERROR 209: undefined object ? at line 245 of [CONDUIT] section:
  27-28            ?                Node_16561657    86.00      0          139.20     139.00     0          0

  
  ERROR 209: undefined object ? at line 246 of [CONDUIT] section:
  29-27            ?                Node_16581656    326.00     0.0140     140.10     139.20     0          0

  
  ERROR 209: undefined object ? at line 247 of [CONDUIT] section:
  30-29            ?                Node_16591658    321.00     0          142.10     140.60     0          0

  
  ERROR 209: undefined object ? at line 248 of [CONDUIT] section:
  31-30            ?                Node_16601659    309.00     0          143.20     142.10     0          0

  
  ERROR 209: undefined object ? at line 249 of [CONDUIT] section:
  34-31            ?                Node_16631660    25.00      0          145.50     145.40     0          0

  
  ERROR 209: undefined object ? at line 250 of [CONDUIT] section:
  35-34            ?                Node_16641663    22.00      0          145.60     145.50     0          0

  
  ERROR 209: undefined object ? at line 251 of [CONDUIT] section:
  32-33            ?                Node_16611662    65.00      0          154.00     153.70     0          0

  
  ERROR 209: undefined object ? at line 252 of [CONDUIT] section:
  33-3             ?                Node_16621632    100.00     0          152.50     152.00     0          0

  
  ERROR 209: undefined object ? at line 253 of [CONDUIT] section:
  36-33            ?                Node_16651662    28.00      0          152.70     152.50     0          0

  
  ERROR 209: undefined object ? at line 254 of [CONDUIT] section:
  37-36            ?                Node_16661665    28.00      0          152.90     152.70     0          0

  
  ERROR 209: undefined object ? at line 255 of [CONDUIT] section:
  38-37            ?                Node_16671666    307.00     0          155.50     152.90     0          0

  
  ERROR 209: undefined object ? at line 256 of [CONDUIT] section:
  39-38            ?                Node_16681667    347.00     0          157.90     156.00     0          0

  
  ERROR 209: undefined object ? at line 257 of [CONDUIT] section:
  40-39            ?                Node_16691668    316.00     0          159.80     157.90     0          0

  
  ERROR 209: undefined object ? at line 258 of [CONDUIT] section:
  41-40            ?                Node_16701669    349.00     0          161.20     159.80     0          0

  
  ERROR 209: undefined object ? at line 259 of [CONDUIT] section:
  42-41            ?                Node_16711670    367.00     0          162.70     161.20     0          0

  
  ERROR 209: undefined object ? at line 260 of [CONDUIT] section:
  43-42            ?                Node_16721671    382.00     0          165.40     163.20     0          0

  
  ERROR 209: undefined object ? at line 261 of [CONDUIT] section:
  44-43            ?                Node_16731672    31.00      0          165.70     165.40     0          0

  
  ERROR 209: undefined object ? at line 262 of [CONDUIT] section:
  45-44            ?                Node_16741673    49.00      0          166.10     165.70     0          0

  
  ERROR 209: undefined object ? at line 263 of [CONDUIT] section:
  46-45            ?                Node_16751674    109.00     0          166.80     166.10     0          0

  
  ERROR 209: undefined object ? at line 264 of [CONDUIT] section:
  47-46            ?                Node_16761675    393.00     0          168.50     166.80     0          0

  
  ERROR 209: undefined object ? at line 265 of [CONDUIT] section:
  48-47            ?                Node_16771676    396.00     0          176.00     168.50     0          0

  
  ERROR 209: undefined object ? at line 266 of [CONDUIT] section:
  49-48            ?                Node_16781677    357.00     0          183.50     176.00     0          0

  
  ERROR 209: undefined object Node_50 at line 267 of [CONDUIT] section:
  51-50            Node_50          Node_16801679    62.00      0          162.12     161.50     0          0

  
  ERROR 209: undefined object Node_51 at line 268 of [CONDUIT] section:
  56-51            Node_51          Node_16851680    136.00     0          166.34     165.64     0          0

  
  ERROR 209: undefined object Node_53 at line 269 of [CONDUIT] section:
  52-53            Node_53          Node_16811682    77.00      0          163.00     162.70     0          0

  
  ERROR 209: undefined object Node_54 at line 270 of [CONDUIT] section:
  53-54            Node_54          Node_16821683    51.00      0          162.70     162.50     0          0

  
  ERROR 209: undefined object Node_55 at line 271 of [CONDUIT] section:
  54-55            Node_55          Node_16831684    127.00     0          162.50     162.00     0          0

  
  ERROR 209: undefined object Node_57 at line 272 of [CONDUIT] section:
  55-57            Node_57          Node_16841686    305.00     0          161.80     156.80     0          0

  
  ERROR 209: undefined object Node_57 at line 273 of [CONDUIT] section:
  140-57           Node_57          Node_17691686    63.00      0          162.70     162.20     0          0

  
  ERROR 209: undefined object Node_58 at line 274 of [CONDUIT] section:
  57-58            Node_58          Node_16861687    132.00     0          156.50     155.40     0          0

  
  ERROR 209: undefined object Node_59 at line 275 of [CONDUIT] section:
  58-59            Node_59          Node_16871688    159.00     0          155.30     153.80     0          0

  
  ERROR 209: undefined object Node_60 at line 276 of [CONDUIT] section:
  59-60            Node_60          Node_16881689    303.00     0          153.30     152.40     0          0

  
  ERROR 209: undefined object Node_61 at line 277 of [CONDUIT] section:
  60-61            Node_61          Node_16891690    308.00     0          152.30     151.10     0          0

  
  ERROR 209: undefined object Node_62 at line 278 of [CONDUIT] section:
  61-62            Node_62          Node_16901691    247.00     0          151.00     149.50     0          0

  
  ERROR 209: undefined object Node_64 at line 279 of [CONDUIT] section:
  62-64            Node_64          Node_16911693    65.00      0          142.20     141.90     0          0

  
  ERROR 209: undefined object Node_63 at line 280 of [CONDUIT] section:
  63-2             Node_63          Node_16921631    610.00     0          136.00     122.50     0          0

  
  ERROR 209: undefined object Node_64 at line 281 of [CONDUIT] section:
  65-64            Node_64          Node_16941693    179.00     0          136.90     136.00     0          0

  
  ERROR 209: undefined object Node_64 at line 282 of [CONDUIT] section:
  64-2             Node_64          Node_16931631    527.00     0          133.90     122.50     0          0

  
  ERROR 209: undefined object Node_65 at line 283 of [CONDUIT] section:
  66-65            Node_65          Node_16951694    303.00     0          138.90     137.00     0          0

  
  ERROR 209: undefined object Node_66 at line 284 of [CONDUIT] section:
  67-66            Node_66          Node_16961695    308.00     0          140.20     139.30     0          0

  
  ERROR 209: undefined object Node_67 at line 285 of [CONDUIT] section:
  101-67           Node_67          Node_17301696    32.00      0          147.60     147.00     0          0

  
  ERROR 209: undefined object Node_101 at line 286 of [CONDUIT] section:
  100-101          Node_101         Node_17291730    28.00      0          148.00     147.60     0          0

  
  ERROR 209: undefined object Node_67 at line 287 of [CONDUIT] section:
  68-67            Node_67          Node_16971696    172.00     0          141.30     140.40     0          0

  
  ERROR 209: undefined object Node_68 at line 288 of [CONDUIT] section:
  69-68            Node_68          Node_16981697    133.00     0          141.80     141.40     0          0

  
  ERROR 209: undefined object Node_69 at line 289 of [CONDUIT] section:
  70-69            Node_69          Node_16991698    290.00     0          143.60     142.60     0          0

  
  ERROR 209: undefined object Node_70 at line 290 of [CONDUIT] section:
  71-70            Node_70          Node_17001699    291.00     0          144.50     144.00     0          0

  
  ERROR 209: undefined object Node_71 at line 291 of [CONDUIT] section:
  72-71            Node_71          Node_17011700    292.00     0          146.80     144.50     0          0

  
  ERROR 209: undefined object Node_72 at line 292 of [CONDUIT] section:
  73-72            Node_72          Node_17021701    293.00     0          148.30     146.80     0          0

  
  ERROR 209: undefined object Node_73 at line 293 of [CONDUIT] section:
  74-73            Node_73          Node_17031702    210.00     0          150.00     148.30     0          0

  
  ERROR 209: undefined object Node_74 at line 294 of [CONDUIT] section:
  75-74            Node_74          Node_17041703    85.00      0          151.90     150.60     0          0

  
  ERROR 209: undefined object Node_75 at line 295 of [CONDUIT] section:
  76-75            Node_75          Node_17051704    296.00     0          153.90     152.60     0          0

  
  ERROR 209: undefined object Node_76 at line 296 of [CONDUIT] section:
  77-76            Node_76          Node_17061705    293.00     0          157.70     155.90     0          0

  
  ERROR 209: undefined object Node_77 at line 297 of [CONDUIT] section:
  78-77            Node_77          Node_17071706    295.00     0          161.50     160.10     0          0

  
  ERROR 209: undefined object Node_78 at line 298 of [CONDUIT] section:
  79-78            Node_78          Node_17081707    313.00     0          168.50     166.40     0          0

  
  ERROR 209: undefined object Node_79 at line 299 of [CONDUIT] section:
  80-79            Node_79          Node_17091708    259.00     0          175.30     173.90     0          0

  
  ERROR 209: undefined object Node_80 at line 300 of [CONDUIT] section:
  81-80            Node_80          Node_17101709    300.00     0          185.20     177.80     0          0

  
  ERROR 209: undefined object Node_81 at line 301 of [CONDUIT] section:
  82-81            Node_81          Node_17111710    293.00     0          192.20     188.10     0          0

  
  ERROR 209: undefined object Node_82 at line 302 of [CONDUIT] section:
  84-82            Node_82          Node_17131711    134.00     0          193.90     193.20     0          0

  
  ERROR 209: undefined object Node_84 at line 303 of [CONDUIT] section:
  148-84           Node_84          Node_17771713    54.00      0          194.30     193.90     0          0

  
  ERROR 209: undefined object Node_82 at line 304 of [CONDUIT] section:
  83-82            Node_82          Node_17121711    293.00     0          202.60     197.00     0          0

  
  ERROR 209: undefined object Node_86 at line 305 of [CONDUIT] section:
  85-86            Node_86          Node_17141715    190.00     0          210.83     200.00     0          0

  
  ERROR 209: undefined object Node_86 at line 306 of [CONDUIT] section:
  128-86           Node_86          Node_17571715    217.00     0          202.90     200.34     0          0

  
  ERROR 209: undefined object Node_87 at line 307 of [CONDUIT] section:
  86-87            Node_87          Node_17151716    81.00      0          200.00     195.43     0          0

  
  ERROR 209: undefined object Node_88 at line 308 of [CONDUIT] section:
  87-88            Node_88          Node_17161717    231.00     0          195.34     184.26     0          0

  
  ERROR 209: undefined object Node_89 at line 309 of [CONDUIT] section:
  88-89            Node_89          Node_17171718    301.00     0          183.20     179.00     0          0

  
  ERROR 209: undefined object Node_90 at line 310 of [CONDUIT] section:
  89-90            Node_90          Node_17181719    267.00     0          177.98     174.20     0          0

  
  ERROR 209: undefined object Node_91 at line 311 of [CONDUIT] section:
  90-91            Node_91          Node_17191720    311.00     0          173.52     169.80     0          0

  
  ERROR 209: undefined object Node_92 at line 312 of [CONDUIT] section:
  91-92            Node_92          Node_17201721    231.00     0          168.80     166.28     0          0

  
  ERROR 209: undefined object Node_92 at line 313 of [CONDUIT] section:
  133-92           Node_92          Node_17621721    44.00      0.0108     166.60     166.30     0          0

  
  ERROR 209: undefined object Node_93 at line 314 of [CONDUIT] section:
  92-93            Node_93          Node_17211722    316.00     0          166.13     164.00     0          0

  
  ERROR 209: undefined object Node_94 at line 315 of [CONDUIT] section:
  93-94            Node_94          Node_17221723    236.00     0          164.00     162.85     0          0

  
  ERROR 209: undefined object Node_96 at line 316 of [CONDUIT] section:
  94-96            Node_96          Node_17231725    326.00     0          162.85     161.26     0          0

  
  ERROR 209: undefined object Node_97 at line 317 of [CONDUIT] section:
  96-97            Node_97          Node_17251726    65.00      0          162.05     161.65     0          0

  
  ERROR 209: undefined object Node_98 at line 318 of [CONDUIT] section:
  97-98            Node_98          Node_17261727    249.00     0          161.35     159.70     0          0

  
  Maximum error count exceeded.

  Analysis begun on:  Sat Mar  7 21:51:30 2026
  Analysis ended on:  Sat Mar  7 21:51:30 2026
  Total elapsed time: < 1 sec