
  EPA STORM WATER MANAGEMENT MODEL - VERSION 5.2 (Build 5.2.4)
  ------------------------------------------------------------

  
  ERROR 211: invalid number  at line 108 of [XSECT] section:
  MH1              RECT_CLOSED  1.64       0          0          0          

  
  ERROR 211: invalid number  at line 109 of [XSECT] section:
  MH8              RECT_CLOSED  1.49       0          0          0          

  
  ERROR 211: invalid number  at line 110 of [XSECT] section:
  MH9              RECT_CLOSED  1.37       0          0          0          

  
  ERROR 211: invalid number  at line 111 of [XSECT] section:
  WEIR             RECT_OPEN    0          100.00     0          0          


  Analysis begun on:  Sat Mar  7 21:51:23 2026
  Analysis ended on:  Sat Mar  7 21:51:23 2026
  Total elapsed time: < 1 sec