
  EPA STORM WATER MANAGEMENT MODEL - VERSION 5.2 (Build 5.2.4)
  ------------------------------------------------------------

  
  ERROR 211: invalid number  at line 51 of [XSECT] section:
  orifice2         RECT_CLOSED  5.00       0          0          0          

  
  ERROR 211: invalid number  at line 52 of [XSECT] section:
  orifice1         RECT_CLOSED  5.00       0          0          0          

  
  ERROR 211: invalid number  at line 53 of [XSECT] section:
  213.1            RECT_CLOSED  5.00       0          0          0          


  Analysis begun on:  Sat Mar  7 21:51:29 2026
  Analysis ended on:  Sat Mar  7 21:51:29 2026
  Total elapsed time: < 1 sec