
  EPA STORM WATER MANAGEMENT MODEL - VERSION 5.2 (Build 5.2.4)
  ------------------------------------------------------------

  
  ERROR 209: undefined object ? at line 47 of [CONDUIT] section:
  FM1              ?                ?                50.00      0.0110     0          0          0          0

  
  ERROR 209: undefined object ? at line 48 of [CONDUIT] section:
  fm3              ?                ?                50.00      0.0110     0          0          0          0

  
  ERROR 209: undefined object ? at line 51 of [CONDUIT] section:
  fm6              ?                ?                50.00      0.0110     0          0          0          0

  
  ERROR 209: undefined object ? at line 52 of [CONDUIT] section:
  FM7              ?                ?                50.00      0.0110     0          0          0          0

  
  ERROR 209: undefined object ? at line 53 of [CONDUIT] section:
  fm8              ?                ?                50.00      0.0110     0          0          0          0

  
  ERROR 209: undefined object ? at line 54 of [CONDUIT] section:
  fm9              ?                ?                50.00      0.0110     0          0          0          0

  
  ERROR 209: undefined object ? at line 55 of [CONDUIT] section:
  FM11             ?                ?                50.00      0.0110     0          0          0          0

  
  ERROR 209: undefined object ? at line 56 of [CONDUIT] section:
  fm2              ?                ?                50.00      0.0110     0          0          0          0


  Analysis begun on:  Sat Mar  7 21:51:29 2026
  Analysis ended on:  Sat Mar  7 21:51:29 2026
  Total elapsed time: < 1 sec