
  EPA STORM WATER MANAGEMENT MODEL - VERSION 5.2 (Build 5.2.4)
  ------------------------------------------------------------

  
  ERROR 209: undefined object 20.00 at line 54 of [XSECT] section:
  Creek1           IRREGULAR    20.00      0          0          0          1

  
  ERROR 209: undefined object 20.00 at line 55 of [XSECT] section:
  Upper            IRREGULAR    20.00      0          0          0          1

  
  ERROR 209: undefined object 20.00 at line 56 of [XSECT] section:
  Tidal2           IRREGULAR    20.00      0          0          0          1

  
  ERROR 209: undefined object 20.00 at line 57 of [XSECT] section:
  Tidal1           IRREGULAR    20.00      0          0          0          1

  
  ERROR 209: undefined object 20.00 at line 58 of [XSECT] section:
  Creek3           IRREGULAR    20.00      0          0          0          1

  
  ERROR 209: undefined object 20.00 at line 59 of [XSECT] section:
  Creek2           IRREGULAR    20.00      0          0          0          1

  
  ERROR 209: undefined object 20.00 at line 60 of [XSECT] section:
  Creek4           IRREGULAR    20.00      0          0          0          1

  
  ERROR 211: invalid number  at line 61 of [XSECT] section:
  154.1            RECT_CLOSED  20.00      0          0          0          


  Analysis begun on:  Sat Mar  7 21:51:24 2026
  Analysis ended on:  Sat Mar  7 21:51:24 2026
  Total elapsed time: < 1 sec