
  EPA STORM WATER MANAGEMENT MODEL - VERSION 5.2 (Build 5.2.4)
  ------------------------------------------------------------

  
  ERROR 209: undefined object 208.2 at line 30 of [CONDUIT] section:
  208.1            208.2            ?                2450.00    0.0140     1000.00    980.40     0          0

  
  ERROR 209: undefined object ? at line 31 of [CONDUIT] section:
  210              ?                ?                2450.00    0.0140     1000.00    980.40     0          0

  
  ERROR 209: undefined object 5.00 at line 36 of [XSECT] section:
  208.1            IRREGULAR    5.00       0          0          0          1

  
  ERROR 209: undefined object 5.00 at line 37 of [XSECT] section:
  210              IRREGULAR    5.00       0          0          0          1


  Analysis begun on:  Sat Mar  7 21:51:33 2026
  Analysis ended on:  Sat Mar  7 21:51:33 2026
  Total elapsed time: < 1 sec