
  EPA STORM WATER MANAGEMENT MODEL - VERSION 5.2 (Build 5.2.4)
  ------------------------------------------------------------

  
  ERROR 209: undefined object ? at line 35 of [CONDUIT] section:
  204              ?                ?                0          0          0          0          0          0

  
  ERROR 209: undefined object ? at line 36 of [CONDUIT] section:
  207              ?                ?                0          0          0          0          0          0

  
  ERROR 209: undefined object ? at line 37 of [CONDUIT] section:
  208              ?                ?                0          0          0          0          0          0

  
  ERROR 209: undefined object ? at line 38 of [CONDUIT] section:
  210              ?                ?                0          0          0          0          0          0

  
  ERROR 211: invalid number  at line 43 of [XSECT] section:
  204              CIRCULAR     0          0          0          0          1

  
  ERROR 211: invalid number  at line 44 of [XSECT] section:
  207              CIRCULAR     0          0          0          0          1

  
  ERROR 211: invalid number  at line 45 of [XSECT] section:
  208              CIRCULAR     0          0          0          0          1

  
  ERROR 211: invalid number  at line 46 of [XSECT] section:
  210              CIRCULAR     0          0          0          0          1


  Analysis begun on:  Sat Mar  7 21:51:30 2026
  Analysis ended on:  Sat Mar  7 21:51:30 2026
  Total elapsed time: < 1 sec