
  EPA STORM WATER MANAGEMENT MODEL - VERSION 5.2 (Build 5.2.4)
  ------------------------------------------------------------

  
  ERROR 209: undefined object 0 at line 58 of [XSECT] section:
  1.00             IRREGULAR    0          0          0          0          1

  
  ERROR 209: undefined object 0 at line 59 of [XSECT] section:
  2.00             IRREGULAR    0          0          0          0          1

  
  ERROR 209: undefined object 0 at line 60 of [XSECT] section:
  3.00             IRREGULAR    0          0          0          0          1

  
  ERROR 209: undefined object 0 at line 61 of [XSECT] section:
  4.00             IRREGULAR    0          0          0          0          1

  
  ERROR 209: undefined object 0 at line 62 of [XSECT] section:
  5.00             IRREGULAR    0          0          0          0          1

  
  ERROR 209: undefined object 0 at line 63 of [XSECT] section:
  6.00             IRREGULAR    0          0          0          0          1

  
  ERROR 209: undefined object 0 at line 64 of [XSECT] section:
  7.00             IRREGULAR    0          0          0          0          1

  
  ERROR 209: undefined object 0 at line 65 of [XSECT] section:
  8.00             IRREGULAR    0          0          0          0          1

  
  ERROR 209: undefined object 0 at line 66 of [XSECT] section:
  9.00             IRREGULAR    0          0          0          0          1

  
  ERROR 209: undefined object 0 at line 67 of [XSECT] section:
  10.00            IRREGULAR    0          0          0          0          1

  
  ERROR 209: undefined object 0 at line 68 of [XSECT] section:
  11.00            IRREGULAR    0          0          0          0          1

  
  ERROR 209: undefined object 0 at line 69 of [XSECT] section:
  12.00            IRREGULAR    0          0          0          0          1


  Analysis begun on:  Sat Mar  7 21:51:26 2026
  Analysis ended on:  Sat Mar  7 21:51:26 2026
  Total elapsed time: < 1 sec