
  EPA STORM WATER MANAGEMENT MODEL - VERSION 5.2 (Build 5.2.4)
  ------------------------------------------------------------

  
  ERROR 209: undefined object Node_2138 at line 39 of [CONDUIT] section:
  049              Node_2138        Node_19572337    4200.00    0.0130     -6.74      -6.74      0          0

  
  ERROR 209: undefined object Node_9163 at line 40 of [CONDUIT] section:
  PE09163          Node_9163        Node_23372334    1450.00    0.0130     -6.74      -9.64      0          0

  
  ERROR 209: undefined object Node_8049 at line 45 of [PUMP] section:
  8049             Node_8049        Node_19591957    PC_8049    ON       -16.25     -17.50    


  Analysis begun on:  Sat Mar  7 21:51:29 2026
  Analysis ended on:  Sat Mar  7 21:51:29 2026
  Total elapsed time: < 1 sec