
  EPA STORM WATER MANAGEMENT MODEL - VERSION 5.2 (Build 5.2.4)
  ------------------------------------------------------------

  Example 3 of Extran Manual - 
  Sump Orifice 
  
  *************
  Element Count
  *************
  Number of rain gages ...... 0
  Number of subcatchments ... 0
  Number of nodes ........... 11
  Number of links ........... 11
  Number of pollutants ...... 0
  Number of land uses ....... 0
  
  
  ************
  Node Summary
  ************
                                           Invert      Max.    Ponded    External
  Name                 Type                 Elev.     Depth      Area    Inflow  
  -------------------------------------------------------------------------------
  80408                JUNCTION            124.60     13.40       0.0    Yes
  80608                JUNCTION            118.30     16.70       0.0
  81009                JUNCTION            128.20      8.80       0.0    Yes
  81309                JUNCTION            117.50     12.50       0.0
  82309                JUNCTION            112.30     42.70       0.0    Yes
  15009                JUNCTION            111.50     13.50       0.0
  16009                JUNCTION            102.00     18.00       0.0
  16109                JUNCTION            102.80     22.20       0.0
  OF1                  OUTFALL              89.90      0.00       0.0
  10309                STORAGE             101.60      9.40       0.0
  Wetland              STORAGE               0.00      0.00       0.0
  
  
  ************
  Link Summary
  ************
  Name             From Node        To Node          Type            Length    %Slope Roughness
  ---------------------------------------------------------------------------------------------
  8040             80408            80608            CONDUIT         1800.0    0.3500    0.0150
  8060             80608            82309            CONDUIT         2075.0    0.1831    0.0150
  8100             81009            81309            CONDUIT         5100.0    0.2098    0.0150
  8130             81309            15009            CONDUIT         3500.0    0.1714    0.0150
  1570             15009            16009            CONDUIT         5000.0    0.1900    0.0154
  1600             16109            16009            CONDUIT          500.0    0.1600    0.0150
  1630             16009            10309            CONDUIT          300.0    0.1333    0.0150
  1602             82309            16109            CONDUIT         5000.0    0.1900    0.0340
  90010            82309            15009            ORIFICE     
  rc1              10309            OF1              OUTLET      
  1                10309            Wetland          OUTLET      
  
  
  *********************
  Cross Section Summary
  *********************
                                        Full     Full     Hyd.     Max.   No. of     Full
  Conduit          Shape               Depth     Area     Rad.    Width  Barrels     Flow
  ---------------------------------------------------------------------------------------
  8040             CIRCULAR             4.00    12.57     1.00     4.00        1    73.65
  8060             CIRCULAR             4.00    12.57     1.00     4.00        1    53.27
  8100             CIRCULAR             4.50    15.90     1.12     4.50        1    78.06
  8130             CIRCULAR             4.50    15.90     1.12     4.50        1    70.56
  1570             CIRCULAR             5.50    23.76     1.38     5.50        1   123.56
  1600             CIRCULAR             6.00    28.27     1.50     6.00        1   146.82
  1630             TRAPEZOIDAL          9.00   243.00     4.27    54.00        1  2313.27
  1602             CIRCULAR             5.00    19.63     1.25     5.00        1    43.41
  
  
  ****************
  Analysis Options
  ****************
  Flow Units ............... CFS
  Process Models:
    Rainfall/Runoff ........ NO
    RDII ................... NO
    Snowmelt ............... NO
    Groundwater ............ NO
    Flow Routing ........... YES
    Ponding Allowed ........ NO
    Water Quality .......... NO
  Flow Routing Method ...... DYNWAVE
  Surcharge Method ......... EXTRAN
  Starting Date ............ 01/01/2002 00:00:00
  Ending Date .............. 01/01/2002 08:00:00
  Antecedent Dry Days ...... 0.0
  Report Time Step ......... 00:05:00
  Routing Time Step ........ 20.00 sec
  Variable Time Step ....... NO
  Maximum Trials ........... 8
  Number of Threads ........ 1
  Head Tolerance ........... 0.005000 ft
  
  
  **************************        Volume        Volume
  Flow Routing Continuity        acre-feet      10^6 gal
  **************************     ---------     ---------
  Dry Weather Inflow .......         0.000         0.000
  Wet Weather Inflow .......         0.000         0.000
  Groundwater Inflow .......         0.000         0.000
  RDII Inflow ..............         0.000         0.000
  External Inflow ..........        33.470        10.907
  External Outflow .........        13.730         4.474
  Flooding Loss ............        19.785         6.447
  Evaporation Loss .........         0.000         0.000
  Exfiltration Loss ........         0.000         0.000
  Initial Stored Volume ....         0.000         0.000
  Final Stored Volume ......         0.078         0.026
  Continuity Error (%) .....        -0.367
  
  
  *************************
  Highest Continuity Errors
  *************************
  Node 80608 (1.80%)
  
  
  ********************************
  Highest Flow Instability Indexes
  ********************************
  Link 1600 (7)
  Link 1630 (7)
  Link rc1 (1)
  Link 1 (1)
  Link 1602 (1)
  
  
  *********************************
  Most Frequent Nonconverging Nodes
  *********************************
  Node OF1 (1.18%)
  Node 82309 (0.90%)
  Node 16109 (0.21%)
  Node 15009 (0.07%)
  Node 16009 (0.07%)
  
  
  *************************
  Routing Time Step Summary
  *************************
  Minimum Time Step           :    20.00 sec
  Average Time Step           :    20.00 sec
  Maximum Time Step           :    20.00 sec
  % of Time in Steady State   :     0.00
  Average Iterations per Step :     2.40
  % of Steps Not Converging   :     1.18
  
  
  ******************
  Node Depth Summary
  ******************
  
  ---------------------------------------------------------------------------------
                                 Average  Maximum  Maximum  Time of Max    Reported
                                   Depth    Depth      HGL   Occurrence   Max Depth
  Node                 Type         Feet     Feet     Feet  days hr:min        Feet
  ---------------------------------------------------------------------------------
  80408                JUNCTION     0.90     2.36   126.96     0  00:18        2.35
  80608                JUNCTION     1.37     3.97   122.27     0  03:01        3.96
  81009                JUNCTION     1.11     2.89   131.09     0  00:33        2.89
  81309                JUNCTION     1.23     2.80   120.30     0  01:27        2.80
  82309                JUNCTION     2.56     7.46   119.76     0  02:45        7.46
  15009                JUNCTION     1.76     4.22   115.72     0  02:56        4.22
  16009                JUNCTION     4.27     9.06   111.06     0  01:27        9.01
  16109                JUNCTION     3.65     8.32   111.12     0  01:27        8.27
  OF1                  OUTFALL      0.00     0.00    89.90     0  00:00        0.00
  10309                STORAGE      4.37     9.40   111.00     0  01:27        9.40
  Wetland              STORAGE      0.00     0.00     0.00     0  00:00        0.00
  
  
  *******************
  Node Inflow Summary
  *******************
  
  -------------------------------------------------------------------------------------------------
                                  Maximum  Maximum                  Lateral       Total        Flow
                                  Lateral    Total  Time of Max      Inflow      Inflow     Balance
                                   Inflow   Inflow   Occurrence      Volume      Volume       Error
  Node                 Type           CFS      CFS  days hr:min    10^6 gal    10^6 gal     Percent
  -------------------------------------------------------------------------------------------------
  80408                JUNCTION     45.00    45.00     0  00:15        3.64        3.64      -0.188
  80608                JUNCTION      0.00    46.58     0  00:22           0        3.64       1.832
  81009                JUNCTION     50.00    50.00     0  00:15        4.04        4.04      -0.543
  81309                JUNCTION      0.00    52.71     0  00:46           0        4.06       0.616
  82309                JUNCTION     40.00    86.88     0  00:46        3.23        6.81      -0.513
  15009                JUNCTION      0.00    93.11     0  02:45           0        7.49      -0.249
  16009                JUNCTION      0.00   134.41     0  02:52           0        10.9       0.069
  16109                JUNCTION      0.00    49.29     0  00:56           0        3.39      -0.912
  OF1                  OUTFALL       0.00    46.40     0  01:28           0        4.47       0.000
  10309                STORAGE       0.00   135.24     0  03:04           0        10.9       0.012
  Wetland              STORAGE       0.00    46.40     0  01:28           0        4.47       0.000
  
  
  **********************
  Node Surcharge Summary
  **********************
  
  Surcharging occurs when water rises above the top of the highest conduit.
  ---------------------------------------------------------------------
                                               Max. Height   Min. Depth
                                   Hours       Above Crown    Below Rim
  Node                 Type      Surcharged           Feet         Feet
  ---------------------------------------------------------------------
  82309                JUNCTION        1.73          1.257       35.243
  16009                JUNCTION        1.69          0.056        8.944
  16109                JUNCTION        2.73          2.318       13.882
  
  
  *********************
  Node Flooding Summary
  *********************
  
  Flooding refers to all water that overflows a node, whether it ponds or not.
  --------------------------------------------------------------------------
                                                             Total   Maximum
                                 Maximum   Time of Max       Flood    Ponded
                        Hours       Rate    Occurrence      Volume     Depth
  Node                 Flooded       CFS   days hr:min    10^6 gal      Feet
  --------------------------------------------------------------------------
  10309                   1.98     42.24      0  03:05       1.973     0.000
  Wetland                 7.91     46.40      0  01:28       4.474     0.000
  
  
  **********************
  Storage Volume Summary
  **********************
  
  ------------------------------------------------------------------------------------------------
                         Average    Avg   Evap  Exfil     Maximum    Max    Time of Max    Maximum
                          Volume   Pcnt   Pcnt   Pcnt      Volume   Pcnt     Occurrence    Outflow
  Storage Unit          1000 ftł   Full   Loss   Loss    1000 ftł   Full    days hr:min        CFS
  ------------------------------------------------------------------------------------------------
  10309                    0.044   46.4    0.0    0.0       0.094  100.0       0  01:27      92.80
  Wetland                  0.000    0.0    0.0    0.0       0.000    0.0       0  00:00       0.00
  
  
  ***********************
  Outfall Loading Summary
  ***********************
  
  -----------------------------------------------------------
                         Flow       Avg       Max       Total
                         Freq      Flow      Flow      Volume
  Outfall Node           Pcnt       CFS       CFS    10^6 gal
  -----------------------------------------------------------
  OF1                   97.36     21.33     46.40       4.474
  -----------------------------------------------------------
  System                97.36     21.33     46.40       4.474
  
  
  ********************
  Link Flow Summary
  ********************
  
  -----------------------------------------------------------------------------
                                 Maximum  Time of Max   Maximum    Max/    Max/
                                  |Flow|   Occurrence   |Veloc|    Full    Full
  Link                 Type          CFS  days hr:min    ft/sec    Flow   Depth
  -----------------------------------------------------------------------------
  8040                 CONDUIT     46.58     0  00:22      7.13    0.63    0.78
  8060                 CONDUIT     50.22     0  03:06      5.14    0.94    1.00
  8100                 CONDUIT     52.71     0  00:46      7.16    0.68    0.60
  8130                 CONDUIT     50.01     0  01:28      4.37    0.71    0.78
  1570                 CONDUIT     92.93     0  02:57     19.33    0.75    0.88
  1600                 CONDUIT     42.90     0  01:09      2.07    0.29    1.00
  1630                 CONDUIT    135.24     0  03:04      3.67    0.06    1.00
  1602                 CONDUIT     49.29     0  00:56      2.81    1.14    1.00
  90010                ORIFICE     43.11     0  02:45                          
  rc1                  DUMMY       46.40     0  01:28
  1                    DUMMY       46.40     0  01:28
  
  
  ***************************
  Flow Classification Summary
  ***************************
  
  -------------------------------------------------------------------------------------
                      Adjusted    ---------- Fraction of Time in Flow Class ---------- 
                       /Actual         Up    Down  Sub   Sup   Up    Down  Norm  Inlet 
  Conduit               Length    Dry  Dry   Dry   Crit  Crit  Crit  Crit  Ltd   Ctrl  
  -------------------------------------------------------------------------------------
  8040                    1.00   0.00  0.00  0.00  0.97  0.03  0.00  0.00  0.95  0.00
  8060                    1.00   0.00  0.00  0.00  0.36  0.00  0.00  0.64  0.10  0.00
  8100                    1.00   0.00  0.00  0.00  0.97  0.03  0.00  0.00  0.90  0.00
  8130                    1.00   0.00  0.00  0.00  1.00  0.00  0.00  0.00  1.00  0.00
  1570                    1.00   0.00  0.00  0.00  0.98  0.02  0.00  0.00  0.65  0.00
  1600                    1.00   0.00  0.00  0.00  1.00  0.00  0.00  0.00  0.38  0.00
  1630                    1.00   0.00  0.00  0.00  0.72  0.28  0.00  0.00  0.00  0.00
  1602                    1.00   0.00  0.00  0.00  1.00  0.00  0.00  0.00  0.57  0.00
  
  
  *************************
  Conduit Surcharge Summary
  *************************
  
  ----------------------------------------------------------------------------
                                                           Hours        Hours 
                         --------- Hours Full --------   Above Full   Capacity
  Conduit                Both Ends  Upstream  Dnstream   Normal Flow   Limited
  ----------------------------------------------------------------------------
  8060                        0.01      0.01      1.73      0.01         0.01
  1570                        0.01      0.01      3.12      0.01         0.01
  1600                        2.73      2.73      2.97      0.01         0.01
  1630                        1.68      1.68      2.20      0.01         0.01
  1602                        2.22      2.49      3.03      0.31         0.04
  

  Analysis begun on:  Sun Mar  8 02:18:28 2026
  Analysis ended on:  Sun Mar  8 02:18:28 2026
  Total elapsed time: < 1 sec