
  EPA STORM WATER MANAGEMENT MODEL - VERSION 5.2 (Build 5.2.4)
  ------------------------------------------------------------

  
  ERROR 207: duplicate ID name BASIN at line 38 of [STORAGE] section:
  BASIN            57.00      0          0          FUNCTIONAL 0 0          0

  
  ERROR 207: duplicate ID name D.A. at line 40 of [STORAGE] section:
  D.A.             56.50      0          0          FUNCTIONAL 0 0          0

  
  ERROR 207: duplicate ID name D.A. at line 41 of [STORAGE] section:
  D.A.             55.00      0          0          FUNCTIONAL 0 0          0

  
  ERROR 207: duplicate ID name D.A. at line 42 of [STORAGE] section:
  D.A.             56.50      0          0          FUNCTIONAL 0 0          0

  
  ERROR 207: duplicate ID name REACH at line 48 of [CONDUIT] section:
  REACH            BASIN            80-BOUNDRY       50.00      0.0800     55.96      55.70      0          0

  
  ERROR 207: duplicate ID name REACH at line 50 of [CONDUIT] section:
  REACH            50A              50B              25.00      0.0120     50.40      50.10      0          0

  
  ERROR 207: duplicate ID name REACH at line 51 of [CONDUIT] section:
  REACH            50B              50-BOUNDRY       85.00      0.0110     50.10      49.72      0          0

  
  ERROR 207: duplicate ID name REACH at line 52 of [CONDUIT] section:
  REACH            D.A.             D.A.             604.00     0.0130     52.70      49.50      0          0

  
  ERROR 207: duplicate ID name REACH at line 60 of [ORIFICE] section:
  REACH 11         D.A.             D.A.E1a          SIDE       51.56      0.650      NO       0


  Analysis begun on:  Sat Mar  7 21:51:29 2026
  Analysis ended on:  Sat Mar  7 21:51:29 2026
  Total elapsed time: < 1 sec