
  EPA STORM WATER MANAGEMENT MODEL - VERSION 5.2 (Build 5.2.4)
  ------------------------------------------------------------

  
  ERROR 209: undefined object ? at line 155 of [CONDUIT] section:
  L2               ?                Node_11601161    98.00      0.0260     681.08     679.04     0          0

  
  ERROR 209: undefined object ? at line 156 of [CONDUIT] section:
  L2A              ?                Node_1161516     49.00      0.0359     679.04     674.12     0          0

  
  ERROR 209: undefined object ? at line 157 of [CONDUIT] section:
  L1               ?                Node_12571160    93.88      0.0140     680.82     680.47     0          0

  
  ERROR 209: undefined object ? at line 158 of [CONDUIT] section:
  L2B              ?                Node_11601260    92.35      0.0140     680.43     680.09     0          0

  
  ERROR 209: undefined object Node_7621 at line 159 of [CONDUIT] section:
  7621             Node_7621        Node_1263453     240.00     0.0150     0          0          0          0

  
  ERROR 209: undefined object Node_7631 at line 160 of [CONDUIT] section:
  7631             Node_7631        Node_1267454     260.00     0.0150     0          0          0          0

  
  ERROR 209: undefined object Node_6631 at line 161 of [CONDUIT] section:
  6631             Node_6631        Node_1271454     170.00     0.0150     0          0          0          0

  
  ERROR 209: undefined object Node_7641 at line 162 of [CONDUIT] section:
  7641             Node_7641        Node_1275456     180.00     0.0150     0          0          0          0

  
  ERROR 209: undefined object Node_7651 at line 163 of [CONDUIT] section:
  7651             Node_7651        Node_1279458     430.00     0.0150     0          0          0          0

  
  ERROR 209: undefined object Node_7661 at line 164 of [CONDUIT] section:
  7661             Node_7661        Node_1283460     130.00     0.0150     0          0          0          0

  
  ERROR 209: undefined object Node_7671 at line 165 of [CONDUIT] section:
  7671             Node_7671        Node_1287464     220.00     0.0150     0          0          0          0

  
  ERROR 209: undefined object Node_7681 at line 166 of [CONDUIT] section:
  7681             Node_7681        Node_1291467     220.00     0.0150     0          0          0          0

  
  ERROR 209: undefined object Node_7691 at line 167 of [CONDUIT] section:
  7691             Node_7691        Node_1295462     160.00     0.0150     0          0          0          0

  
  ERROR 209: undefined object Node_7701 at line 168 of [CONDUIT] section:
  7701             Node_7701        Node_1299462     130.00     0.0150     0          0          0          0

  
  ERROR 209: undefined object Node_7711 at line 169 of [CONDUIT] section:
  7711             Node_7711        Node_1303470     140.00     0.0150     0          0          0          0

  
  ERROR 209: undefined object Node_6711 at line 170 of [CONDUIT] section:
  6711             Node_6711        Node_1307470     220.00     0.0150     0          0          0          0

  
  ERROR 209: undefined object Node_7721 at line 171 of [CONDUIT] section:
  7721             Node_7721        Node_1311472     190.00     0.0150     0          0          0          0

  
  ERROR 209: undefined object Node_7731 at line 172 of [CONDUIT] section:
  7731             Node_7731        Node_1315476     140.00     0.0150     0          0          0          0

  
  ERROR 209: undefined object Node_7741 at line 173 of [CONDUIT] section:
  7741             Node_7741        Node_1319477     320.00     0.0150     0          0          0          0

  
  ERROR 209: undefined object Node_7761 at line 174 of [CONDUIT] section:
  7761             Node_7761        Node_1323483     180.00     0.0150     0          0          0          0

  
  ERROR 209: undefined object Node_7771 at line 175 of [CONDUIT] section:
  7771             Node_7771        Node_1327485     220.00     0.0150     0          0          0          0

  
  ERROR 209: undefined object Node_7791 at line 176 of [CONDUIT] section:
  7791             Node_7791        Node_1331493     190.00     0.0150     0          0          0          0

  
  ERROR 209: undefined object Node_7801 at line 177 of [CONDUIT] section:
  7801             Node_7801        Node_1335497     200.00     0.0150     0          0          0          0

  
  ERROR 209: undefined object Node_7811 at line 178 of [CONDUIT] section:
  7811             Node_7811        Node_1339505     230.00     0.0150     0          0          0          0

  
  ERROR 209: undefined object Node_7821 at line 179 of [CONDUIT] section:
  7821             Node_7821        Node_1343508     240.00     0.0150     0          0          0          0

  
  ERROR 209: undefined object Node_7224 at line 180 of [CONDUIT] section:
  7224             Node_7224        Node_1347518     200.00     0.0150     0          0          0          0

  
  ERROR 209: undefined object Node_711 at line 181 of [CONDUIT] section:
  711              Node_711         Node_13491262    186.00     0.0150     0          0          0          0

  
  ERROR 209: undefined object Node_7620 at line 186 of [ORIFICE] section:
  7620             Node_7620        Node_1265453     SIDE       0          0.650      NO       0

  
  ERROR 209: undefined object Node_7630 at line 187 of [ORIFICE] section:
  7630             Node_7630        Node_1269454     SIDE       0          0.650      NO       0

  
  ERROR 209: undefined object Node_6630 at line 188 of [ORIFICE] section:
  6630             Node_6630        Node_1273454     SIDE       0          0.650      NO       0

  
  ERROR 209: undefined object Node_7640 at line 189 of [ORIFICE] section:
  7640             Node_7640        Node_1277456     SIDE       0          0.650      NO       0

  
  ERROR 209: undefined object Node_7650 at line 190 of [ORIFICE] section:
  7650             Node_7650        Node_1281458     SIDE       0          0.650      NO       0

  
  ERROR 209: undefined object Node_7660 at line 191 of [ORIFICE] section:
  7660             Node_7660        Node_1285460     SIDE       0          0.650      NO       0

  
  ERROR 209: undefined object Node_7670 at line 192 of [ORIFICE] section:
  7670             Node_7670        Node_1289464     SIDE       0          0.650      NO       0

  
  ERROR 209: undefined object Node_7680 at line 193 of [ORIFICE] section:
  7680             Node_7680        Node_1293467     SIDE       0          0.650      NO       0

  
  ERROR 209: undefined object Node_7690 at line 194 of [ORIFICE] section:
  7690             Node_7690        Node_1297462     SIDE       0          0.650      NO       0

  
  ERROR 209: undefined object Node_7700 at line 195 of [ORIFICE] section:
  7700             Node_7700        Node_1301462     SIDE       0          0.650      NO       0

  
  ERROR 209: undefined object Node_7710 at line 196 of [ORIFICE] section:
  7710             Node_7710        Node_1305470     SIDE       0          0.650      NO       0

  
  ERROR 209: undefined object Node_6710 at line 197 of [ORIFICE] section:
  6710             Node_6710        Node_1309470     SIDE       0          0.650      NO       0

  
  ERROR 209: undefined object Node_7720 at line 198 of [ORIFICE] section:
  7720             Node_7720        Node_1313472     SIDE       0          0.650      NO       0

  
  ERROR 209: undefined object Node_7730 at line 199 of [ORIFICE] section:
  7730             Node_7730        Node_1317476     SIDE       0          0.650      NO       0

  
  ERROR 209: undefined object Node_7740 at line 200 of [ORIFICE] section:
  7740             Node_7740        Node_1321477     SIDE       0          0.650      NO       0

  
  ERROR 209: undefined object Node_7760 at line 201 of [ORIFICE] section:
  7760             Node_7760        Node_1325483     SIDE       0          0.650      NO       0

  
  ERROR 209: undefined object Node_7770 at line 202 of [ORIFICE] section:
  7770             Node_7770        Node_1329485     SIDE       0          0.650      NO       0

  
  ERROR 209: undefined object Node_7790 at line 203 of [ORIFICE] section:
  7790             Node_7790        Node_1333493     SIDE       0          0.650      NO       0

  
  ERROR 209: undefined object Node_7800 at line 204 of [ORIFICE] section:
  7800             Node_7800        Node_1337497     SIDE       0          0.650      NO       0

  
  ERROR 209: undefined object Node_7810 at line 205 of [ORIFICE] section:
  7810             Node_7810        Node_1341505     SIDE       0          0.650      NO       0

  
  ERROR 209: undefined object Node_7820 at line 206 of [ORIFICE] section:
  7820             Node_7820        Node_1345508     SIDE       0          0.650      NO       0

  
  ERROR 209: undefined object Node_710 at line 207 of [ORIFICE] section:
  710              Node_710         Node_13511262    SIDE       0          0.650      NO       0

  
  ERROR 211: invalid number  at line 274 of [XSECT] section:
  7620             RECT_CLOSED  0.50       0          0          0          

  
  ERROR 211: invalid number  at line 275 of [XSECT] section:
  7630             RECT_CLOSED  0.50       0          0          0          

  
  ERROR 211: invalid number  at line 276 of [XSECT] section:
  6630             RECT_CLOSED  0.50       0          0          0          

  
  ERROR 211: invalid number  at line 277 of [XSECT] section:
  7640             RECT_CLOSED  0.50       0          0          0          

  
  ERROR 211: invalid number  at line 278 of [XSECT] section:
  7650             RECT_CLOSED  0.50       0          0          0          

  
  ERROR 211: invalid number  at line 279 of [XSECT] section:
  7660             RECT_CLOSED  0.50       0          0          0          

  
  ERROR 211: invalid number  at line 280 of [XSECT] section:
  7670             RECT_CLOSED  0.50       0          0          0          

  
  ERROR 211: invalid number  at line 281 of [XSECT] section:
  7680             RECT_CLOSED  0.50       0          0          0          

  
  ERROR 211: invalid number  at line 282 of [XSECT] section:
  7690             RECT_CLOSED  0.50       0          0          0          

  
  ERROR 211: invalid number  at line 283 of [XSECT] section:
  7700             RECT_CLOSED  0.50       0          0          0          

  
  ERROR 211: invalid number  at line 284 of [XSECT] section:
  7710             RECT_CLOSED  0.50       0          0          0          

  
  ERROR 211: invalid number  at line 285 of [XSECT] section:
  6710             RECT_CLOSED  0.50       0          0          0          

  
  ERROR 211: invalid number  at line 286 of [XSECT] section:
  7720             RECT_CLOSED  0.50       0          0          0          

  
  ERROR 211: invalid number  at line 287 of [XSECT] section:
  7730             RECT_CLOSED  0.50       0          0          0          

  
  ERROR 211: invalid number  at line 288 of [XSECT] section:
  7740             RECT_CLOSED  0.50       0          0          0          

  
  ERROR 211: invalid number  at line 289 of [XSECT] section:
  7760             RECT_CLOSED  0.50       0          0          0          

  
  ERROR 211: invalid number  at line 290 of [XSECT] section:
  7770             RECT_CLOSED  0.50       0          0          0          

  
  ERROR 211: invalid number  at line 291 of [XSECT] section:
  7790             RECT_CLOSED  0.50       0          0          0          

  
  ERROR 211: invalid number  at line 292 of [XSECT] section:
  7800             RECT_CLOSED  0.50       0          0          0          

  
  ERROR 211: invalid number  at line 293 of [XSECT] section:
  7810             RECT_CLOSED  0.50       0          0          0          

  
  ERROR 211: invalid number  at line 294 of [XSECT] section:
  7820             RECT_CLOSED  0.50       0          0          0          

  
  ERROR 211: invalid number  at line 295 of [XSECT] section:
  710              RECT_CLOSED  0.50       0          0          0          


  Analysis begun on:  Sat Mar  7 21:51:25 2026
  Analysis ended on:  Sat Mar  7 21:51:25 2026
  Total elapsed time: < 1 sec