
  EPA STORM WATER MANAGEMENT MODEL - VERSION 5.2 (Build 5.2.4)
  ------------------------------------------------------------

  
  ERROR 209: undefined object ? at line 1965 of [CONDUIT] section:
  1003             ?                0970568          250.00     0.0120     670.58     669.75     0          0

  
  ERROR 209: undefined object ? at line 1966 of [CONDUIT] section:
  1004             ?                0970574          159.00     0.0120     669.55     669.03     0          0

  
  ERROR 209: undefined object ? at line 1967 of [CONDUIT] section:
  1005             ?                0970575          182.00     0.0120     669.63     669.03     0          0

  
  ERROR 209: undefined object ? at line 1968 of [CONDUIT] section:
  1006             ?                0970576          158.00     0.0120     668.93     668.41     0          0

  
  ERROR 209: undefined object ? at line 1969 of [CONDUIT] section:
  1007             ?                0970577          119.00     0.0120     670.05     669.65     0          0

  
  ERROR 209: undefined object ? at line 1970 of [CONDUIT] section:
  1008             ?                0970822          120.00     0.0120     670.54     670.15     0          0

  
  ERROR 209: undefined object ? at line 1971 of [CONDUIT] section:
  1009             ?                0970821          42.00      0.0120     670.19     670.05     0          0

  
  ERROR 209: undefined object ? at line 1972 of [CONDUIT] section:
  1010             ?                0970820          92.00      0.0120     670.69     670.39     0          0

  
  ERROR 209: undefined object ? at line 1973 of [CONDUIT] section:
  1011             ?                0970819          260.00     0.0120     667.04     666.18     0          0

  
  ERROR 209: undefined object ? at line 1974 of [CONDUIT] section:
  1012             ?                0970818          350.00     0.0120     666.08     664.93     0          0

  
  ERROR 209: undefined object ? at line 1975 of [CONDUIT] section:
  1013             ?                0970241          190.00     0.0120     664.83     664.20     0          0

  
  ERROR 209: undefined object ? at line 1976 of [CONDUIT] section:
  1014             ?                0970240          350.00     0.0120     664.10     662.95     0          0

  
  ERROR 209: undefined object ? at line 1977 of [CONDUIT] section:
  1015             ?                0970239          22.00      0.0120     662.95     662.87     0          0

  
  ERROR 209: undefined object ? at line 1978 of [CONDUIT] section:
  1016             ?                0970238          210.00     0.0120     662.77     662.08     0          0

  
  ERROR 209: undefined object ? at line 1979 of [CONDUIT] section:
  1017             ?                0970237          100.00     0.0120     662.31     661.98     0          0

  
  ERROR 209: undefined object ? at line 1980 of [CONDUIT] section:
  1018             ?                0970236          235.00     0.0120     661.88     661.11     0          0

  
  ERROR 209: undefined object ? at line 1981 of [CONDUIT] section:
  1019             ?                0970225          210.00     0.0120     661.01     660.31     0          0

  
  ERROR 209: undefined object ? at line 1982 of [CONDUIT] section:
  1020             ?                0970226          222.00     0.0120     660.21     659.48     0          0

  
  ERROR 209: undefined object ? at line 1983 of [CONDUIT] section:
  1021             ?                0970227          24.00      0.0120     659.28     658.81     0          0

  
  ERROR 209: undefined object ? at line 1984 of [CONDUIT] section:
  1022             ?                0970228          397.00     0.0120     658.81     657.76     0          0

  
  ERROR 209: undefined object ? at line 1985 of [CONDUIT] section:
  1023             ?                0970229          301.00     0.0120     660.70     659.71     0          0

  
  ERROR 209: undefined object ? at line 1986 of [CONDUIT] section:
  1024             ?                0970230          266.00     0.0120     661.68     660.80     0          0

  
  ERROR 209: undefined object ? at line 1987 of [CONDUIT] section:
  1025             ?                0970231          266.00     0.0120     662.56     661.68     0          0

  
  ERROR 209: undefined object ? at line 1988 of [CONDUIT] section:
  1026             ?                0970232          342.00     0.0120     663.79     662.66     0          0

  
  ERROR 209: undefined object ? at line 1989 of [CONDUIT] section:
  1027             ?                0970233          350.00     0.0120     666.84     665.69     0          0

  
  ERROR 209: undefined object ? at line 1990 of [CONDUIT] section:
  1028             ?                0970245          266.00     0.0120     667.82     666.94     0          0

  
  ERROR 209: undefined object ? at line 1991 of [CONDUIT] section:
  1029             ?                0970246          278.00     0.0120     668.84     667.92     0          0

  
  ERROR 209: undefined object ? at line 1992 of [CONDUIT] section:
  1030             ?                0970247          166.00     0.0120     669.49     668.94     0          0

  
  ERROR 209: undefined object ? at line 1993 of [CONDUIT] section:
  1031             ?                0970305          240.00     0.0120     660.57     660.28     0          0

  
  ERROR 209: undefined object ? at line 1994 of [CONDUIT] section:
  1032             ?                0970263          177.00     0.0120     662.55     660.97     0          0

  
  ERROR 209: undefined object ? at line 1995 of [CONDUIT] section:
  1033             ?                0970758          80.00      0.0120     669.81     669.55     0          0

  
  ERROR 209: undefined object ? at line 1996 of [CONDUIT] section:
  1034             ?                0970259          121.00     0.0120     669.37     668.97     0          0

  
  ERROR 209: undefined object ? at line 1997 of [CONDUIT] section:
  1035             ?                0970248          218.00     0.0120     668.87     666.57     0          0

  
  ERROR 209: undefined object ? at line 1998 of [CONDUIT] section:
  1036             ?                0970255          56.00      0.0120     666.47     666.01     0          0

  
  ERROR 209: undefined object ? at line 1999 of [CONDUIT] section:
  1037             ?                0970750          32.00      0.0120     665.91     665.50     0          0

  
  ERROR 209: undefined object ? at line 2000 of [CONDUIT] section:
  1038             ?                0970751          296.00     0.0120     665.40     662.65     0          0

  
  ERROR 209: undefined object ? at line 2001 of [CONDUIT] section:
  1039             ?                0970253          126.00     0.0120     693.06     692.43     0          0

  
  ERROR 209: undefined object ? at line 2002 of [CONDUIT] section:
  1040             ?                0970252          35.00      0.0120     690.74     690.63     0          0

  
  ERROR 209: undefined object ? at line 2003 of [CONDUIT] section:
  1041             ?                0970251          128.00     0.0120     691.25     690.74     0          0

  
  ERROR 209: undefined object ? at line 2004 of [CONDUIT] section:
  1042             ?                0970250          170.00     0.0120     690.43     689.53     0          0

  
  ERROR 209: undefined object ? at line 2005 of [CONDUIT] section:
  1043             ?                0970249          310.00     0.0120     689.33     677.33     0          0

  
  ERROR 209: undefined object ? at line 2006 of [CONDUIT] section:
  1044             ?                0970260          285.00     0.0120     677.23     669.25     0          0

  
  ERROR 209: undefined object ? at line 2007 of [CONDUIT] section:
  1045             ?                0970262          250.00     0.0120     669.15     667.90     0          0

  
  ERROR 209: undefined object ? at line 2008 of [CONDUIT] section:
  1046             ?                0970261          300.00     0.0120     667.90     666.10     0          0

  
  ERROR 209: undefined object ? at line 2009 of [CONDUIT] section:
  1047             ?                0970256          167.00     0.0120     668.24     667.41     0          0

  
  ERROR 209: undefined object ? at line 2010 of [CONDUIT] section:
  1048             ?                0970257          310.00     0.0120     669.99     668.44     0          0

  
  ERROR 209: undefined object ? at line 2011 of [CONDUIT] section:
  1049             ?                0970258          70.00      0.0120     669.49     668.44     0          0

  
  ERROR 209: undefined object ? at line 2012 of [CONDUIT] section:
  1050             ?                0970304          225.00     0.0120     694.18     693.06     0          0

  
  ERROR 209: undefined object ? at line 2013 of [CONDUIT] section:
  1051             ?                0970303          283.00     0.0120     695.70     694.28     0          0

  
  ERROR 209: undefined object ? at line 2014 of [CONDUIT] section:
  1052             ?                0970302          283.00     0.0120     697.21     695.80     0          0

  
  ERROR 209: undefined object ? at line 2015 of [CONDUIT] section:
  1053             ?                0970749          373.00     0.0120     686.87     685.00     0          0

  
  ERROR 209: undefined object ? at line 2016 of [CONDUIT] section:
  1054             ?                0970301          373.00     0.0120     684.90     683.04     0          0

  
  ERROR 209: undefined object ? at line 2017 of [CONDUIT] section:
  1055             ?                0970766          340.00     0.0120     682.94     678.75     0          0

  
  ERROR 209: undefined object ? at line 2018 of [CONDUIT] section:
  1056             ?                0970265          93.00      0.0120     678.65     677.54     0          0

  
  ERROR 209: undefined object ? at line 2019 of [CONDUIT] section:
  1057             ?                0970264          290.00     0.0120     677.44     676.48     0          0

  
  ERROR 209: undefined object ? at line 2020 of [CONDUIT] section:
  1058             ?                0970266          175.00     0.0120     676.48     674.03     0          0

  
  ERROR 209: undefined object ? at line 2021 of [CONDUIT] section:
  1059             ?                0970267          348.00     0.0120     673.93     672.16     0          0

  
  ERROR 209: undefined object ? at line 2022 of [CONDUIT] section:
  1060             ?                0970268          348.00     0.0120     672.06     669.97     0          0

  
  ERROR 209: undefined object ? at line 2023 of [CONDUIT] section:
  1061             ?                0970781          306.00     0.0120     678.32     674.03     0          0

  
  ERROR 209: undefined object ? at line 2024 of [CONDUIT] section:
  1062             ?                0970299          315.00     0.0120     684.31     680.22     0          0

  
  ERROR 209: undefined object ? at line 2025 of [CONDUIT] section:
  1063             ?                0970300          360.00     0.0120     682.28     678.32     0          0

  
  ERROR 209: undefined object ? at line 2026 of [CONDUIT] section:
  1064             ?                0970269          140.00     0.0120     689.15     683.78     0          0

  
  ERROR 209: undefined object ? at line 2027 of [CONDUIT] section:
  1065             ?                0970780          206.00     0.0120     689.93     689.25     0          0

  
  ERROR 209: undefined object ? at line 2028 of [CONDUIT] section:
  1066             ?                0970282          346.00     0.0120     691.17     690.03     0          0

  
  ERROR 209: undefined object ? at line 2029 of [CONDUIT] section:
  1067             ?                0970283          310.00     0.0120     686.58     684.48     0          0

  
  ERROR 209: undefined object ? at line 2030 of [CONDUIT] section:
  1068             ?                0970284          100.00     0.0120     693.24     692.68     0          0

  
  ERROR 209: undefined object ? at line 2031 of [CONDUIT] section:
  1069             ?                0970270          200.00     0.0120     694.46     693.34     0          0

  
  ERROR 209: undefined object ? at line 2032 of [CONDUIT] section:
  1070             ?                0970271          339.00     0.0120     696.26     694.56     0          0

  
  ERROR 209: undefined object ? at line 2033 of [CONDUIT] section:
  1071             ?                0970272          70.00      0.0120     704.16     703.46     0          0

  
  ERROR 209: undefined object ? at line 2034 of [CONDUIT] section:
  1072             ?                0970273          380.00     0.0120     688.48     686.58     0          0

  
  ERROR 209: undefined object ? at line 2035 of [CONDUIT] section:
  1073             ?                0970277          175.00     0.0120     692.73     690.98     0          0

  
  ERROR 209: undefined object ? at line 2036 of [CONDUIT] section:
  1074             ?                0970278          385.00     0.0120     695.24     692.93     0          0

  
  ERROR 209: undefined object ? at line 2037 of [CONDUIT] section:
  1075             ?                0970279          385.00     0.0120     697.65     695.34     0          0

  
  ERROR 209: undefined object ? at line 2038 of [CONDUIT] section:
  1076             ?                0970274          70.00      0.0120     702.99     701.24     0          0

  
  ERROR 209: undefined object ? at line 2039 of [CONDUIT] section:
  1077             ?                0970275          332.00     0.0120     701.86     698.54     0          0

  
  ERROR 209: undefined object ? at line 2040 of [CONDUIT] section:
  1078             ?                0970280          98.00      0.0120     702.94     701.96     0          0

  
  ERROR 209: undefined object ? at line 2041 of [CONDUIT] section:
  1079             ?                0970281          175.00     0.0120     692.00     690.88     0          0

  
  ERROR 209: undefined object ? at line 2042 of [CONDUIT] section:
  1080             ?                0970292          110.00     0.0120     697.19     692.10     0          0

  
  ERROR 209: undefined object ? at line 2043 of [CONDUIT] section:
  1081             ?                0970291          342.00     0.0120     698.31     697.19     0          0

  
  ERROR 209: undefined object ? at line 2044 of [CONDUIT] section:
  1082             ?                0970290          98.00      0.0120     700.37     698.41     0          0

  
  ERROR 209: undefined object ? at line 2045 of [CONDUIT] section:
  1083             ?                0970293          101.00     0.0120     708.14     707.50     0          0

  
  ERROR 209: undefined object ? at line 2046 of [CONDUIT] section:
  1084             ?                0970294          49.00      0.0120     707.40     707.14     0          0

  
  ERROR 209: undefined object ? at line 2047 of [CONDUIT] section:
  1085             ?                0970289          91.00      0.0120     707.04     706.13     0          0

  
  ERROR 209: undefined object ? at line 2048 of [CONDUIT] section:
  1086             ?                0970288          106.00     0.0120     707.40     706.13     0          0

  
  ERROR 209: undefined object ? at line 2049 of [CONDUIT] section:
  1087             ?                0970287          70.00      0.0120     708.34     707.50     0          0

  
  ERROR 209: undefined object ? at line 2050 of [CONDUIT] section:
  1088             ?                0970286          203.00     0.0120     706.03     703.59     0          0

  
  ERROR 209: undefined object ? at line 2051 of [CONDUIT] section:
  1089             ?                0970808          310.00     0.0120     703.49     699.15     0          0

  
  ERROR 209: undefined object ? at line 2052 of [CONDUIT] section:
  1090             ?                0970296          130.00     0.0120     699.80     699.15     0          0

  
  ERROR 209: undefined object ? at line 2053 of [CONDUIT] section:
  1091             ?                0970297          157.00     0.0120     699.05     698.53     0          0

  
  ERROR 209: undefined object ? at line 2054 of [CONDUIT] section:
  1092             ?                0970298          129.00     0.0120     698.43     698.01     0          0

  
  ERROR 209: undefined object ? at line 2055 of [CONDUIT] section:
  1093             ?                0970285          308.00     0.0120     703.82     702.31     0          0

  
  ERROR 209: undefined object ? at line 2056 of [CONDUIT] section:
  1094             ?                0970295          100.00     0.0120     704.42     703.92     0          0

  
  ERROR 209: undefined object ? at line 2057 of [CONDUIT] section:
  1095             ?                0970306          392.00     0.0120     708.45     705.32     0          0

  
  ERROR 209: undefined object ? at line 2058 of [CONDUIT] section:
  1096             ?                0970319          310.00     0.0120     697.91     696.36     0          0

  
  ERROR 209: undefined object ? at line 2059 of [CONDUIT] section:
  1097             ?                0970324          370.00     0.0120     702.63     700.41     0          0

  
  ERROR 209: undefined object ? at line 2060 of [CONDUIT] section:
  1098             ?                0970331          150.00     0.0120     670.80     669.37     0          0

  
  ERROR 209: undefined object ? at line 2061 of [CONDUIT] section:
  1099             ?                0970340          159.00     0.0120     672.31     670.80     0          0

  
  ERROR 209: undefined object ? at line 2062 of [CONDUIT] section:
  1100             ?                0970349          166.00     0.0120     673.47     672.81     0          0

  
  ERROR 209: undefined object ? at line 2063 of [CONDUIT] section:
  1101             ?                0970354          335.00     0.0120     674.81     673.47     0          0

  
  ERROR 209: undefined object ? at line 2064 of [CONDUIT] section:
  1102             ?                0970350          325.00     0.0120     676.21     674.91     0          0

  
  Maximum error count exceeded.

  Analysis begun on:  Sat Mar  7 21:51:22 2026
  Analysis ended on:  Sat Mar  7 21:51:22 2026
  Total elapsed time: < 1 sec