
  EPA STORM WATER MANAGEMENT MODEL - VERSION 5.2 (Build 5.2.4)
  ------------------------------------------------------------

  
  ERROR 209: undefined object ? at line 470 of [CONDUIT] section:
  760              ?                ?                400.00     0.0140     709.40     707.80     0          0

  
  ERROR 209: undefined object 18.40 at line 495 of [XSECT] section:
  20210            IRREGULAR    18.40      0          0          0          1

  
  ERROR 209: undefined object 18.40 at line 497 of [XSECT] section:
  20190            IRREGULAR    18.40      0          0          0          1

  
  ERROR 209: undefined object 18.40 at line 498 of [XSECT] section:
  20180            IRREGULAR    18.40      0          0          0          1

  
  ERROR 209: undefined object 18.40 at line 499 of [XSECT] section:
  20170            IRREGULAR    18.40      0          0          0          1

  
  ERROR 209: undefined object 11.91 at line 503 of [XSECT] section:
  20110            IRREGULAR    11.91      0          0          0          1

  
  ERROR 209: undefined object 4.00 at line 511 of [XSECT] section:
  21040            IRREGULAR    4.00       0          0          0          1

  
  ERROR 209: undefined object 4.00 at line 512 of [XSECT] section:
  21020            IRREGULAR    4.00       0          0          0          1

  
  ERROR 209: undefined object 32.50 at line 513 of [XSECT] section:
  21010            IRREGULAR    32.50      0          0          0          1

  
  ERROR 209: undefined object 4.00 at line 514 of [XSECT] section:
  21030            IRREGULAR    4.00       0          0          0          1

  
  ERROR 209: undefined object 12.00 at line 551 of [XSECT] section:
  10670            IRREGULAR    12.00      0          0          0          1

  
  ERROR 209: undefined object 12.00 at line 553 of [XSECT] section:
  10630            IRREGULAR    12.00      0          0          0          1

  
  ERROR 209: undefined object 12.00 at line 554 of [XSECT] section:
  10620            IRREGULAR    12.00      0          0          0          1

  
  ERROR 209: undefined object 12.00 at line 555 of [XSECT] section:
  10610            IRREGULAR    12.00      0          0          0          1

  
  ERROR 209: undefined object 12.00 at line 556 of [XSECT] section:
  10600            IRREGULAR    12.00      0          0          0          1

  
  ERROR 209: undefined object 12.00 at line 558 of [XSECT] section:
  10560            IRREGULAR    12.00      0          0          0          1

  
  ERROR 209: undefined object 12.00 at line 560 of [XSECT] section:
  10520            IRREGULAR    12.00      0          0          0          1

  
  ERROR 209: undefined object 12.00 at line 561 of [XSECT] section:
  10510            IRREGULAR    12.00      0          0          0          1

  
  ERROR 209: undefined object 12.00 at line 562 of [XSECT] section:
  10500            IRREGULAR    12.00      0          0          0          1

  
  ERROR 209: undefined object 12.00 at line 563 of [XSECT] section:
  10490            IRREGULAR    12.00      0          0          0          1

  
  ERROR 209: undefined object 12.00 at line 564 of [XSECT] section:
  10480            IRREGULAR    12.00      0          0          0          1

  
  ERROR 209: undefined object 12.00 at line 574 of [XSECT] section:
  10330            IRREGULAR    12.00      0          0          0          1

  
  ERROR 209: undefined object 6.20 at line 576 of [XSECT] section:
  10300            IRREGULAR    6.20       0          0          0          1

  
  ERROR 209: undefined object 24.00 at line 593 of [XSECT] section:
  10010            IRREGULAR    24.00      0          0          0          1

  
  ERROR 209: undefined object 35.30 at line 624 of [XSECT] section:
  49040            IRREGULAR    35.30      0          0          0          1

  
  ERROR 209: undefined object 35.30 at line 626 of [XSECT] section:
  49020            IRREGULAR    35.30      0          0          0          1

  
  ERROR 209: undefined object 35.30 at line 627 of [XSECT] section:
  49010            IRREGULAR    35.30      0          0          0          1

  
  ERROR 209: undefined object 35.30 at line 628 of [XSECT] section:
  48010            IRREGULAR    35.30      0          0          0          1

  
  ERROR 209: undefined object 35.30 at line 629 of [XSECT] section:
  47040            IRREGULAR    35.30      0          0          0          1

  
  ERROR 209: undefined object 6.00 at line 630 of [XSECT] section:
  47030            IRREGULAR    6.00       0          0          0          1

  
  ERROR 209: undefined object 13.00 at line 632 of [XSECT] section:
  47010            IRREGULAR    13.00      0          0          0          1

  
  ERROR 209: undefined object 20.40 at line 675 of [XSECT] section:
  50190            IRREGULAR    20.40      0          0          0          1

  
  ERROR 209: undefined object 30.60 at line 678 of [XSECT] section:
  50130            IRREGULAR    30.60      0          0          0          1

  
  ERROR 209: undefined object 2.50 at line 698 of [XSECT] section:
  51020            IRREGULAR    2.50       0          0          0          1

  
  ERROR 209: undefined object 2.50 at line 699 of [XSECT] section:
  51010            IRREGULAR    2.50       0          0          0          1

  
  ERROR 209: undefined object 2.50 at line 700 of [XSECT] section:
  51030            IRREGULAR    2.50       0          0          0          1


  Analysis begun on:  Sat Mar  7 21:51:26 2026
  Analysis ended on:  Sat Mar  7 21:51:26 2026
  Total elapsed time: < 1 sec