
  EPA STORM WATER MANAGEMENT MODEL - VERSION 5.2 (Build 5.2.4)
  ------------------------------------------------------------

  
  ERROR 209: undefined object ? at line 35 of [CONDUIT] section:
  203              ?                ?                50.00      0.0140     0          0          0          0

  
  ERROR 209: undefined object ? at line 36 of [CONDUIT] section:
  205              ?                ?                50.00      0.0140     0          0          0          0

  
  ERROR 209: undefined object ? at line 37 of [CONDUIT] section:
  209              ?                ?                50.00      0.0140     0          0          0          0

  
  ERROR 209: undefined object ? at line 38 of [CONDUIT] section:
  211              ?                ?                50.00      0.0140     0          0          0          0

  
  ERROR 209: undefined object ? at line 39 of [CONDUIT] section:
  212              ?                ?                50.00      0.0140     0          0          0          0

  
  ERROR 209: undefined object ? at line 40 of [CONDUIT] section:
  214              ?                ?                50.00      0.0140     0          0          0          0

  
  ERROR 209: undefined object ? at line 41 of [CONDUIT] section:
  216              ?                ?                20.00      0.0140     0          0          0          0

  
  ERROR 209: undefined object 207.2 at line 46 of [WEIR] section:
  207.1            207.2            ?                TRANSVERSE 0          1.840      NO       0        0          YES

  
  ERROR 211: invalid number  at line 58 of [XSECT] section:
  207.1            RECT_OPEN    0          0          0          0          


  Analysis begun on:  Sat Mar  7 21:51:30 2026
  Analysis ended on:  Sat Mar  7 21:51:30 2026
  Total elapsed time: < 1 sec