
  EPA STORM WATER MANAGEMENT MODEL - VERSION 5.2 (Build 5.2.4)
  ------------------------------------------------------------

  
  ERROR 209: undefined object Node_5805 at line 166 of [CONDUIT] section:
  L5805            Node_5805        Node_12291057    326.00     0.0500     163.00     151.50     0          0

  
  ERROR 209: undefined object Node_5809 at line 167 of [CONDUIT] section:
  L5809            Node_5809        Node_12951229    106.80     0.0130     190.50     177.00     0          0

  
  ERROR 209: undefined object Node_5820 at line 168 of [CONDUIT] section:
  L5820            Node_5820        Node_12311229    292.00     0.0500     168.00     163.00     0          0

  
  ERROR 209: undefined object Node_5829 at line 169 of [CONDUIT] section:
  L5829            Node_5829        Node_12961231    60.00      0.0130     187.00     168.00     0          0

  
  ERROR 209: undefined object Node_5830 at line 170 of [CONDUIT] section:
  L5830            Node_5830        Node_12321296    68.20      0.0130     191.68     188.00     0          0

  
  ERROR 209: undefined object Node_5835 at line 171 of [CONDUIT] section:
  L5835            Node_5835        Node_12971231    289.00     0.0500     175.60     168.00     0          0

  
  ERROR 209: undefined object Node_5838 at line 172 of [CONDUIT] section:
  L5838            Node_5838        Node_12981297    28.90      0.0130     185.00     176.00     0          0

  
  ERROR 209: undefined object Node_5839 at line 173 of [CONDUIT] section:
  L5839            Node_5839        Node_12991298    165.10     0.0130     201.50     185.60     0          0

  
  ERROR 209: undefined object Node_5840 at line 174 of [CONDUIT] section:
  L5840            Node_5840        Node_12331299    35.30      0.0130     201.60     201.50     0          0

  
  ERROR 209: undefined object Node_5855 at line 175 of [CONDUIT] section:
  L5855            Node_5855        Node_13001234    267.00     0.0500     185.00     176.50     0          0

  
  ERROR 209: undefined object Node_5860 at line 176 of [CONDUIT] section:
  L5860            Node_5860        Node_13011300    65.60      0.0240     190.00     185.00     0          0

  
  ERROR 209: undefined object Node_5865 at line 177 of [CONDUIT] section:
  L5865            Node_5865        Node_12351301    158.60     0.0130     193.00     190.00     0          0

  
  ERROR 209: undefined object Node_5875 at line 178 of [CONDUIT] section:
  L5875            Node_5875        Node_13021235    92.40      0.0130     197.70     195.50     0          0

  
  ERROR 209: undefined object Node_5879 at line 179 of [CONDUIT] section:
  L5879            Node_5879        Node_13031302    29.00      0.0130     199.00     197.70     0          0

  
  ERROR 209: undefined object Node_5880 at line 180 of [CONDUIT] section:
  L5880            Node_5880        Node_12361303    258.80     0.0130     211.00     199.00     0          0

  
  ERROR 209: undefined object Node_5885 at line 181 of [CONDUIT] section:
  L5885            Node_5885        Node_13041235    83.40      0.0130     197.45     195.50     0          0

  
  ERROR 209: undefined object Node_5888 at line 182 of [CONDUIT] section:
  L5888            Node_5888        Node_13051304    130.00     0.0130     204.80     198.00     0          0

  
  ERROR 209: undefined object Node_5889 at line 183 of [CONDUIT] section:
  L5889            Node_5889        Node_13061305    50.40      0.0130     208.00     205.00     0          0

  
  ERROR 209: undefined object Node_5890 at line 184 of [CONDUIT] section:
  L5890            Node_5890        Node_12371306    120.00     0.0130     209.00     208.00     0          0

  
  ERROR 209: undefined object Node_5895 at line 185 of [CONDUIT] section:
  L5895            Node_5895        Node_12381304    96.60      0.0130     204.00     197.45     0          0

  
  ERROR 209: undefined object Node_5909 at line 186 of [CONDUIT] section:
  L5909            Node_5909        Node_13071301    31.00      0.0240     190.90     190.00     0          0

  
  ERROR 209: undefined object Node_5910 at line 187 of [CONDUIT] section:
  L5910            Node_5910        Node_13081307    101.20     0.0240     194.00     190.90     0          0

  
  ERROR 209: undefined object Node_5925 at line 188 of [CONDUIT] section:
  L5925            Node_5925        Node_12391308    1566.30    0.0250     226.00     194.00     0          0

  
  ERROR 209: undefined object Node_5930 at line 189 of [CONDUIT] section:
  L5930            Node_5930        Node_13091239    137.90     0.0130     228.00     226.00     0          0

  
  ERROR 209: undefined object Node_5945 at line 190 of [CONDUIT] section:
  L5945            Node_5945        Node_13101240    62.00      0.0130     228.80     228.40     0          0

  
  ERROR 209: undefined object Node_5975 at line 191 of [CONDUIT] section:
  L5975            Node_5975        Node_13131242    1481.80    0.0250     259.00     234.00     0          0

  
  ERROR 209: undefined object Node_5980 at line 192 of [CONDUIT] section:
  L5980            Node_5980        Node_12431313    40.10      0.0200     260.00     259.00     0          0

  
  ERROR 209: undefined object Node_6097 at line 193 of [CONDUIT] section:
  L6097            Node_6097        Node_13141244    67.30      0.0130     157.20     154.90     0          0

  
  ERROR 209: undefined object Node_6098 at line 194 of [CONDUIT] section:
  L6098            Node_6098        Node_13151314    206.60     0.0130     169.99     157.20     0          0

  
  ERROR 209: undefined object Node_6099 at line 195 of [CONDUIT] section:
  L6099            Node_6099        Node_13161315    272.20     0.0130     173.83     169.99     0          0

  
  ERROR 209: undefined object Node_6100 at line 196 of [CONDUIT] section:
  L6100            Node_6100        Node_12451316    149.40     0.0130     177.80     174.70     0          0

  
  ERROR 209: undefined object Node_6109 at line 197 of [CONDUIT] section:
  L6109            Node_6109        Node_13171245    35.20      0.0130     178.10     177.90     0          0

  
  ERROR 209: undefined object Node_6110 at line 198 of [CONDUIT] section:
  L6110            Node_6110        Node_12461317    211.80     0.0130     184.56     178.10     0          0

  
  ERROR 209: undefined object Node_6118 at line 199 of [CONDUIT] section:
  L6118            Node_6118        Node_13181246    18.20      0.0130     187.84     184.56     0          0

  
  ERROR 209: undefined object Node_6119 at line 200 of [CONDUIT] section:
  L6119            Node_6119        Node_13191318    114.90     0.0130     188.50     187.84     0          0

  
  ERROR 209: undefined object Node_6120 at line 201 of [CONDUIT] section:
  L6120            Node_6120        Node_12471319    281.50     0.0130     190.00     188.50     0          0

  
  ERROR 209: undefined object Node_6123 at line 202 of [CONDUIT] section:
  L6123            Node_6123        Node_13201246    301.40     0.0130     189.18     185.00     0          0

  
  ERROR 209: undefined object Node_6124 at line 203 of [CONDUIT] section:
  L6124            Node_6124        Node_13211320    93.70      0.0130     189.90     189.28     0          0

  
  ERROR 209: undefined object Node_6125 at line 204 of [CONDUIT] section:
  L6125            Node_6125        Node_13221321    113.60     0.0130     191.80     190.00     0          0

  
  ERROR 209: undefined object Node_6129 at line 205 of [CONDUIT] section:
  L6129            Node_6129        Node_13231322    17.00      0.0130     192.24     192.08     0          0

  
  ERROR 209: undefined object Node_6130 at line 206 of [CONDUIT] section:
  L6130            Node_6130        Node_12481323    79.80      0.0130     193.00     192.24     0          0

  
  ERROR 209: undefined object Node_6139 at line 207 of [CONDUIT] section:
  L6139            Node_6139        Node_13241248    241.10     0.0130     197.40     194.00     0          0

  
  ERROR 209: undefined object Node_6140 at line 208 of [CONDUIT] section:
  L6140            Node_6140        Node_12491324    395.70     0.0130     199.87     197.65     0          0

  
  ERROR 209: undefined object Node_6039 at line 209 of [CONDUIT] section:
  L6039            Node_6039        Node_13261325    55.70      0.0130     163.00     162.00     0          0

  
  ERROR 209: undefined object Node_6040 at line 210 of [CONDUIT] section:
  L6040            Node_6040        Node_12501326    125.60     0.0130     185.07     163.10     0          0

  
  ERROR 209: undefined object Node_5208 at line 211 of [CONDUIT] section:
  L5208            Node_5208        Node_13271251    282.40     0.0250     172.00     164.50     0          0

  
  ERROR 209: undefined object Node_6209 at line 212 of [CONDUIT] section:
  L6209            Node_6209        Node_13281327    647.30     0.0250     202.00     172.00     0          0

  
  ERROR 209: undefined object Node_6210 at line 213 of [CONDUIT] section:
  L6210            Node_6210        Node_13291328    251.40     0.0250     210.00     202.00     0          0

  
  ERROR 209: undefined object Node_6215 at line 214 of [CONDUIT] section:
  L6215            Node_6215        Node_13301329    44.00      0.0130     214.00     212.00     0          0

  
  ERROR 209: undefined object Node_6219 at line 215 of [CONDUIT] section:
  L6219            Node_6219        Node_13311330    484.70     0.0130     219.00     215.00     0          0

  
  ERROR 209: undefined object Node_6320 at line 216 of [CONDUIT] section:
  L6320            Node_6320        Node_12581335    512.20     0.0250     191.10     167.00     0          0

  
  ERROR 209: undefined object Node_6325 at line 217 of [CONDUIT] section:
  L6325            Node_6325        Node_12591258    58.40      0.0200     192.00     191.10     0          0

  
  ERROR 209: undefined object Node_6355 at line 218 of [CONDUIT] section:
  L6355            Node_6355        Node_13371336    68.60      0.0250     176.00     169.00     0          0

  
  ERROR 209: undefined object Node_6360 at line 219 of [CONDUIT] section:
  L6360            Node_6360        Node_12601337    171.40     0.0130     195.22     176.00     0          0

  
  ERROR 209: undefined object Node_6005 at line 220 of [CONDUIT] section:
  L6005            Node_6005        Node_13401339    485.40     0.0250     185.66     157.20     0          0

  
  ERROR 209: undefined object Node_6010 at line 221 of [CONDUIT] section:
  L6010            Node_6010        Node_12611340    36.00      0.0130     186.19     185.66     0          0

  
  ERROR 209: undefined object Node_6630 at line 222 of [CONDUIT] section:
  L6630            Node_6630        Node_12681345    56.50      0.0130     283.00     281.00     0          0

  
  ERROR 209: undefined object Node_6540 at line 223 of [CONDUIT] section:
  L6540            Node_6540        Node_13421341    43.40      0.0130     258.00     257.00     0          0

  
  ERROR 209: undefined object Node_6545 at line 224 of [CONDUIT] section:
  L6545            Node_6545        Node_12641342    521.10     0.0250     260.00     258.00     0          0

  
  ERROR 209: undefined object Node_6550 at line 225 of [CONDUIT] section:
  L6550            Node_6550        Node_13431341    536.50     0.0250     264.00     257.00     0          0

  
  ERROR 209: undefined object Node_6575 at line 226 of [CONDUIT] section:
  L6575            Node_6575        Node_13441265    935.20     0.0250     310.00     265.00     0          0

  
  ERROR 209: undefined object Node_6580 at line 227 of [CONDUIT] section:
  L6580            Node_6580        Node_12661344    47.70      0.0130     312.00     311.00     0          0

  
  ERROR 209: undefined object Node_6625 at line 228 of [CONDUIT] section:
  L6625            Node_6625        Node_13451267    1175.60    0.0250     280.00     196.00     0          0

  
  ERROR 209: undefined object Node_6740 at line 229 of [CONDUIT] section:
  L6740            Node_6740        Node_13471346    854.90     0.0500     294.00     250.00     0          0

  
  ERROR 209: undefined object Node_6745 at line 230 of [CONDUIT] section:
  L6745            Node_6745        Node_12691347    430.10     0.0250     304.90     294.00     0          0

  
  ERROR 209: undefined object Node_6755 at line 231 of [CONDUIT] section:
  L6755            Node_6755        Node_13481269    836.20     0.0500     344.20     304.90     0          0

  
  ERROR 209: undefined object Node_6764 at line 232 of [CONDUIT] section:
  L6764            Node_6764        Node_13491347    760.20     0.0500     355.60     294.00     0          0

  
  ERROR 209: undefined object Node_6765 at line 233 of [CONDUIT] section:
  L6765            Node_6765        Node_12711349    40.10      0.0250     357.00     355.60     0          0

  
  ERROR 209: undefined object Node_6775 at line 234 of [CONDUIT] section:
  L6775            Node_6775        Node_13501271    272.80     0.0500     388.00     357.00     0          0

  
  ERROR 209: undefined object Node_6790 at line 235 of [CONDUIT] section:
  L6790            Node_6790        Node_12731272    837.30     0.0250     560.00     398.00     0          0

  
  ERROR 209: undefined object Node_6729 at line 236 of [CONDUIT] section:
  L6729            Node_6729        Node_13511274    182.40     0.0130     256.60     255.00     0          0

  
  ERROR 209: undefined object Node_6730 at line 237 of [CONDUIT] section:
  L6730            Node_6730        Node_12751351    216.50     0.0130     273.00     256.60     0          0

  
  ERROR 209: undefined object Node_6825 at line 238 of [CONDUIT] section:
  L6825            Node_6825        Node_12771276    218.00     0.0250     252.00     244.00     0          0

  
  ERROR 209: undefined object Node_6830 at line 239 of [CONDUIT] section:
  L6830            Node_6830        Node_12781276    604.60     0.0250     252.00     244.00     0          0

  
  ERROR 209: undefined object Node_6840 at line 240 of [CONDUIT] section:
  L6840            Node_6840        Node_12791277    991.00     0.0500     313.00     252.00     0          0

  
  ERROR 209: undefined object Node_6850 at line 241 of [CONDUIT] section:
  L6850            Node_6850        Node_13521279    935.70     0.0500     434.00     313.00     0          0

  
  ERROR 209: undefined object Node_6900 at line 242 of [CONDUIT] section:
  L6900            Node_6900        Node_12811277    963.00     0.0500     286.00     252.00     0          0

  
  ERROR 209: undefined object Node_6901 at line 243 of [CONDUIT] section:
  L6901            Node_6901        Node_12821281    100.00     0.1000     287.00     286.00     0          0

  
  ERROR 209: undefined object Node_6915 at line 244 of [CONDUIT] section:
  L6915            Node_6915        Node_13531281    964.60     0.0500     436.00     286.00     0          0

  
  ERROR 209: undefined object Node_6930 at line 245 of [CONDUIT] section:
  L6930            Node_6930        Node_12841281    599.00     0.0500     312.00     286.00     0          0

  
  ERROR 209: undefined object Node_6940 at line 246 of [CONDUIT] section:
  L6940            Node_6940        Node_13541284    831.00     0.0500     453.20     312.00     0          0

  
  ERROR 209: undefined object Node_6950 at line 247 of [CONDUIT] section:
  L6950            Node_6950        Node_12861284    1109.00    0.0500     420.00     312.00     0          0

  
  ERROR 209: undefined object Node_6960 at line 248 of [CONDUIT] section:
  L6960            Node_6960        Node_13551286    245.00     0.0500     450.00     420.00     0          0

  
  ERROR 209: undefined object Node_6965 at line 249 of [CONDUIT] section:
  L6965            Node_6965        Node_12871355    83.70      0.0130     458.00     450.00     0          0

  
  ERROR 209: undefined object Node_6975 at line 250 of [CONDUIT] section:
  L6975            Node_6975        Node_13561287    412.50     0.0250     502.10     458.00     0          0

  
  ERROR 209: undefined object Node_1036 at line 251 of [CONDUIT] section:
  1470.1           Node_1036        Node_13381057    118.40     0.0500     151.80     151.50     0          0

  
  ERROR 209: undefined object Node_1038 at line 252 of [CONDUIT] section:
  L1038            Node_1038        Node_12441357    159.10     0.0500     154.50     153.50     0          0

  
  ERROR 209: undefined object Node_1040 at line 253 of [CONDUIT] section:
  L1040            Node_1040        Node_13251244    857.70     0.0500     162.00     154.50     0          0

  
  ERROR 209: undefined object Node_1042 at line 254 of [CONDUIT] section:
  L1042            Node_1042        Node_12511325    204.70     0.0500     164.50     162.00     0          0

  
  ERROR 209: undefined object Node_1044 at line 255 of [CONDUIT] section:
  L1044            Node_1044        Node_12891251    460.80     0.0500     165.50     164.50     0          0

  
  ERROR 209: undefined object Node_1046 at line 256 of [CONDUIT] section:
  L1046            Node_1046        Node_13351289    277.30     0.0500     167.00     165.50     0          0

  
  ERROR 209: undefined object Node_1048 at line 257 of [CONDUIT] section:
  L1048            Node_1048        Node_13361335    615.90     0.0500     169.00     167.00     0          0

  
  ERROR 209: undefined object Node_1050 at line 258 of [CONDUIT] section:
  L1050            Node_1050        Node_12901336    440.10     0.0500     172.00     169.00     0          0

  
  ERROR 209: undefined object Node_1052 at line 259 of [CONDUIT] section:
  L1052            Node_1052        Node_13581290    299.30     0.0500     177.00     172.00     0          0

  
  ERROR 209: undefined object Node_1054 at line 260 of [CONDUIT] section:
  L1054            Node_1054        Node_12631291    415.60     0.0500     180.50     178.70     0          0

  
  ERROR 209: undefined object Node_1056 at line 261 of [CONDUIT] section:
  L1056            Node_1056        Node_12921263    955.50     0.0500     190.00     180.50     0          0

  
  ERROR 209: undefined object Node_1058 at line 262 of [CONDUIT] section:
  L1058            Node_1058        Node_12671292    483.60     0.0500     196.00     190.00     0          0

  
  ERROR 209: undefined object Node_1060 at line 263 of [CONDUIT] section:
  L1060            Node_1060        Node_13591267    586.20     0.0500     203.50     196.00     0          0

  
  ERROR 209: undefined object Node_1062 at line 264 of [CONDUIT] section:
  L1062            Node_1062        Node_12931359    338.10     0.0500     229.50     203.50     0          0

  
  ERROR 209: undefined object Node_1068 at line 265 of [CONDUIT] section:
  L1068            Node_1068        Node_13461274    54.90      0.0500     252.00     250.00     0          0

  
  Maximum error count exceeded.

  Analysis begun on:  Sat Mar  7 21:51:26 2026
  Analysis ended on:  Sat Mar  7 21:51:26 2026
  Total elapsed time: < 1 sec