
  EPA STORM WATER MANAGEMENT MODEL - VERSION 5.2 (Build 5.2.4)
  ------------------------------------------------------------

  
  ERROR 209: undefined object Node_3020230204 at line 1420 of [CONDUIT] section:
  3020230204       Node_3020230204  Node_1602664     231.50     0.0140     793.50     790.50     0          0

  
  ERROR 209: undefined object Node_3044130206 at line 1433 of [CONDUIT] section:
  3044130206       Node_3044130206  Node_1617666     205.00     0.0140     790.61     789.61     0          0

  
  ERROR 209: undefined object ? at line 1435 of [CONDUIT] section:
  XXX              ?                Node_16081625    100.00     0.0140     767.50     767.50     0          0

  
  ERROR 211: invalid number  at line 2150 of [XSECT] section:
  1437             CIRCULAR     0          0          0          0          1


  Analysis begun on:  Sat Mar  7 21:51:22 2026
  Analysis ended on:  Sat Mar  7 21:51:22 2026
  Total elapsed time: < 1 sec