
  EPA STORM WATER MANAGEMENT MODEL - VERSION 5.2 (Build 5.2.4)
  ------------------------------------------------------------

  
  ERROR 209: undefined object 0 at line 128 of [XSECT] section:
  12500            IRREGULAR    0          0          0          0          1

  
  ERROR 209: undefined object 0 at line 129 of [XSECT] section:
  12000            IRREGULAR    0          0          0          0          1

  
  ERROR 209: undefined object 0 at line 131 of [XSECT] section:
  11700            IRREGULAR    0          0          0          0          1

  
  ERROR 209: undefined object 0 at line 132 of [XSECT] section:
  11500            IRREGULAR    0          0          0          0          1

  
  ERROR 209: undefined object 0 at line 133 of [XSECT] section:
  11100            IRREGULAR    0          0          0          0          1

  
  ERROR 209: undefined object 0 at line 134 of [XSECT] section:
  10500            IRREGULAR    0          0          0          0          1

  
  ERROR 209: undefined object 0 at line 145 of [XSECT] section:
  13742            IRREGULAR    0          0          0          0          1

  
  ERROR 209: undefined object 0 at line 146 of [XSECT] section:
  13000            IRREGULAR    0          0          0          0          1


  Analysis begun on:  Sat Mar  7 21:51:33 2026
  Analysis ended on:  Sat Mar  7 21:51:33 2026
  Total elapsed time: < 1 sec