
  EPA STORM WATER MANAGEMENT MODEL - VERSION 5.2 (Build 5.2.4)
  ------------------------------------------------------------

  
  ERROR 209: undefined object ? at line 411 of [CONDUIT] section:
  37               ?                Node_10481001    1095.42    0.0150     123.58     123.25     0          0

  
  ERROR 209: undefined object ? at line 478 of [CONDUIT] section:
  475              ?                ?                371.80     0.0150     -6.04      -6.49      0          0

  
  ERROR 209: undefined object ? at line 479 of [CONDUIT] section:
  477              ?                ?                640.00     0.0150     -5.30      -6.04      0          0

  
  ERROR 209: undefined object ? at line 480 of [CONDUIT] section:
  479              ?                ?                771.14     0.0150     -4.11      -5.30      0          0

  
  ERROR 209: undefined object ? at line 481 of [CONDUIT] section:
  480              ?                ?                726.30     0.0150     -3.37      -4.11      0          0

  
  ERROR 209: undefined object ? at line 482 of [CONDUIT] section:
  482              ?                ?                628.90     0.0150     -1.93      -2.99      0          0

  
  ERROR 209: undefined object ? at line 483 of [CONDUIT] section:
  484              ?                ?                766.11     0.0150     -0.31      -1.93      0          0

  
  ERROR 209: undefined object ? at line 484 of [CONDUIT] section:
  485              ?                ?                381.37     0.0150     -0.35      -0.31      0          0

  
  ERROR 209: undefined object ? at line 485 of [CONDUIT] section:
  487              ?                ?                822.00     0.0150     18.60      14.96      0          0

  
  ERROR 209: undefined object ? at line 486 of [CONDUIT] section:
  489              ?                ?                964.00     0.0150     14.96      10.70      0          0

  
  ERROR 209: undefined object ? at line 487 of [CONDUIT] section:
  490              ?                ?                373.37     0.0150     10.70      -0.35      0          0

  
  ERROR 209: undefined object ? at line 488 of [CONDUIT] section:
  496              ?                ?                663.10     0.0150     -4.43      -6.01      0          0

  
  ERROR 209: undefined object ? at line 489 of [CONDUIT] section:
  498              ?                ?                547.75     0.0150     -3.20      -3.38      0          0

  
  ERROR 209: undefined object ? at line 490 of [CONDUIT] section:
  500c             ?                ?                504.40     0.0150     -2.25      -3.20      0          0

  
  ERROR 209: undefined object ? at line 491 of [CONDUIT] section:
  502              ?                ?                541.65     0.0150     0.39       -1.11      0          0

  
  ERROR 209: undefined object ? at line 492 of [CONDUIT] section:
  504c             ?                ?                649.65     0.0140     1.63       0.39       0          0

  
  ERROR 209: undefined object ? at line 493 of [CONDUIT] section:
  506c             ?                ?                537.80     0.0150     11.25      10.90      0          0

  
  ERROR 209: undefined object ? at line 494 of [CONDUIT] section:
  508c             ?                ?                827.80     0.0150     10.90      10.48      0          0

  
  ERROR 209: undefined object ? at line 495 of [CONDUIT] section:
  510n             ?                ?                321.40     0.0150     10.48      9.90       0          0

  
  ERROR 209: undefined object ? at line 496 of [CONDUIT] section:
  512c             ?                ?                771.25     0.0150     9.90       9.61       0          0

  
  ERROR 209: undefined object ? at line 497 of [CONDUIT] section:
  514c             ?                ?                845.75     0.0150     9.61       9.25       0          0

  
  ERROR 209: undefined object ? at line 498 of [CONDUIT] section:
  516c             ?                ?                843.50     0.0150     9.25       8.88       0          0

  
  ERROR 209: undefined object ? at line 499 of [CONDUIT] section:
  518c             ?                ?                644.70     0.0150     8.88       8.46       0          0

  
  ERROR 209: undefined object ? at line 500 of [CONDUIT] section:
  519c             ?                ?                456.00     0.0150     8.46       8.29       0          0

  
  ERROR 209: undefined object ? at line 501 of [CONDUIT] section:
  521c             ?                ?                446.10     0.0150     8.29       8.07       0          0

  
  ERROR 209: undefined object ? at line 502 of [CONDUIT] section:
  523c             ?                ?                495.50     0.0150     8.07       7.83       0          0

  
  ERROR 209: undefined object ? at line 503 of [CONDUIT] section:
  524c             ?                ?                837.70     0.0150     7.83       7.44       0          0

  
  ERROR 209: undefined object ? at line 504 of [CONDUIT] section:
  526c             ?                ?                655.20     0.0150     7.12       6.75       0          0

  
  ERROR 209: undefined object ? at line 505 of [CONDUIT] section:
  528c             ?                ?                493.70     0.0150     6.75       6.52       0          0

  
  ERROR 209: undefined object ? at line 506 of [CONDUIT] section:
  530c             ?                ?                502.30     0.0150     6.52       6.27       0          0

  
  ERROR 209: undefined object ? at line 507 of [CONDUIT] section:
  533c             ?                ?                531.16     0.0150     6.27       6.00       0          0

  
  ERROR 209: undefined object ? at line 508 of [CONDUIT] section:
  537c             ?                ?                257.00     0.0150     109.96     104.38     0          0

  
  ERROR 209: undefined object ? at line 509 of [CONDUIT] section:
  540c             ?                ?                696.00     0.0150     113.93     111.12     0          0

  
  ERROR 209: undefined object ? at line 510 of [CONDUIT] section:
  545c             ?                ?                802.00     0.0150     114.58     113.93     0          0

  
  ERROR 209: undefined object ? at line 511 of [CONDUIT] section:
  549c             ?                ?                632.00     0.0150     116.14     115.63     0          0

  
  ERROR 209: undefined object ? at line 512 of [CONDUIT] section:
  551c             ?                ?                586.00     0.0150     115.63     115.15     0          0

  
  ERROR 209: undefined object ? at line 513 of [CONDUIT] section:
  552c             ?                ?                586.00     0.0150     115.15     114.58     0          0

  
  ERROR 209: undefined object ? at line 514 of [CONDUIT] section:
  555c             ?                ?                334.00     0.0150     116.95     116.75     0          0

  
  ERROR 209: undefined object ? at line 515 of [CONDUIT] section:
  569c             ?                ?                562.00     0.0140     119.73     119.39     0          0

  
  ERROR 209: undefined object ? at line 516 of [CONDUIT] section:
  570c             ?                ?                885.00     0.0140     119.39     117.40     0          0

  
  ERROR 209: undefined object ? at line 517 of [CONDUIT] section:
  572c             ?                ?                547.18     0.0140     124.83     124.28     0          0

  
  ERROR 209: undefined object ? at line 518 of [CONDUIT] section:
  574c             ?                ?                587.47     0.0140     124.28     123.69     0          0

  
  ERROR 209: undefined object ? at line 519 of [CONDUIT] section:
  576c             ?                ?                569.39     0.0140     123.69     123.12     0          0

  
  ERROR 209: undefined object ? at line 520 of [CONDUIT] section:
  577c             ?                ?                594.08     0.0140     123.12     122.54     0          0

  
  ERROR 209: undefined object ? at line 521 of [CONDUIT] section:
  579c             ?                ?                515.00     0.0150     129.25     128.93     0          0

  
  ERROR 209: undefined object ? at line 522 of [CONDUIT] section:
  580c             ?                ?                737.53     0.0150     128.93     124.93     0          0

  
  ERROR 209: undefined object ? at line 529 of [CONDUIT] section:
  604c             ?                ?                130.00     0.0130     -5.00      -6.30      0          0

  
  ERROR 209: undefined object ? at line 533 of [CONDUIT] section:
  613c             ?                ?                685.00     0.0140     135.40     125.96     0          0

  
  ERROR 209: undefined object ? at line 534 of [CONDUIT] section:
  614c             ?                ?                704.00     0.0140     125.96     125.30     0          0

  
  ERROR 209: undefined object ? at line 535 of [CONDUIT] section:
  616c             ?                ?                410.00     0.0140     124.43     123.61     0          0

  
  ERROR 209: undefined object ? at line 536 of [CONDUIT] section:
  618c             ?                ?                540.54     0.0140     123.61     123.10     0          0

  
  ERROR 209: undefined object ? at line 537 of [CONDUIT] section:
  619c             ?                ?                397.60     0.0140     123.10     122.50     0          0

  
  ERROR 209: undefined object ? at line 538 of [CONDUIT] section:
  621c             ?                ?                662.69     0.0140     132.79     130.79     0          0

  
  ERROR 209: undefined object ? at line 539 of [CONDUIT] section:
  622c             ?                ?                543.53     0.0140     130.79     129.25     0          0

  
  ERROR 209: undefined object ? at line 540 of [CONDUIT] section:
  624c             ?                ?                648.32     0.0140     138.00     135.80     0          0

  
  ERROR 209: undefined object ? at line 541 of [CONDUIT] section:
  625c             ?                ?                556.60     0.0140     135.80     135.02     0          0

  
  ERROR 209: undefined object ? at line 545 of [CONDUIT] section:
  634              ?                ?                15.00      0.0140     132.08     131.98     0          0

  
  ERROR 209: undefined object ? at line 546 of [CONDUIT] section:
  805              ?                805N             274.25     0.0140     130.40     126.75     0          0

  
  ERROR 209: undefined object ? at line 549 of [CONDUIT] section:
  646c             ?                ?                580.00     0.0150     -1.39      -5.82      0          0

  
  ERROR 209: undefined object ? at line 550 of [CONDUIT] section:
  650c             ?                ?                273.00     0.0150     7.50       3.10       0          0

  
  ERROR 209: undefined object ? at line 552 of [CONDUIT] section:
  655c             ?                ?                340.00     0.0150     3.10       1.06       0          0

  
  ERROR 209: undefined object ? at line 553 of [CONDUIT] section:
  657c             ?                ?                504.00     0.0140     124.45     123.97     0          0

  
  ERROR 209: undefined object ? at line 554 of [CONDUIT] section:
  659c             ?                ?                521.80     0.0140     123.97     123.53     0          0

  
  ERROR 209: undefined object ? at line 555 of [CONDUIT] section:
  661c             ?                ?                579.18     0.0140     123.53     123.00     0          0

  
  ERROR 209: undefined object ? at line 556 of [CONDUIT] section:
  662c             ?                ?                50.00      0.0140     123.00     122.99     0          0

  
  ERROR 209: undefined object ? at line 557 of [CONDUIT] section:
  664c             ?                ?                183.70     0.0140     144.00     135.18     0          0

  
  ERROR 209: undefined object ? at line 558 of [CONDUIT] section:
  673c             ?                ?                1018.00    0.0140     96.00      45.90      0          0

  
  ERROR 209: undefined object ? at line 559 of [CONDUIT] section:
  680c             ?                ?                421.90     0.0140     92.78      48.56      0          0

  
  ERROR 209: undefined object ? at line 560 of [CONDUIT] section:
  683c             ?                ?                543.16     0.0140     89.17      52.33      0          0

  
  ERROR 209: undefined object ? at line 561 of [CONDUIT] section:
  684c             ?                ?                593.53     0.0140     52.33      39.66      0          0

  
  ERROR 209: undefined object ? at line 562 of [CONDUIT] section:
  687c             ?                ?                655.29     0.0140     79.75      39.66      0          0

  
  ERROR 209: undefined object ? at line 563 of [CONDUIT] section:
  699c             ?                ?                530.62     0.0140     104.50     63.00      0          0

  
  ERROR 209: undefined object ? at line 564 of [CONDUIT] section:
  701c             ?                ?                590.00     0.0140     81.00      45.27      0          0

  
  ERROR 209: undefined object ? at line 565 of [CONDUIT] section:
  704c             ?                ?                416.00     0.0140     22.62      13.84      0          0

  
  ERROR 209: undefined object ? at line 566 of [CONDUIT] section:
  715c             ?                ?                422.00     0.0140     13.84      3.79       0          0

  
  ERROR 209: undefined object ? at line 567 of [CONDUIT] section:
  717c             ?                ?                393.88     0.0140     31.26      0.63       0          0

  
  ERROR 209: undefined object ? at line 568 of [CONDUIT] section:
  721c             ?                ?                950.00     0.0140     12.80      -0.29      0          0

  
  ERROR 209: undefined object ? at line 569 of [CONDUIT] section:
  726c             ?                ?                167.00     0.0140     0.63       -0.29      0          0

  
  ERROR 209: undefined object ? at line 570 of [CONDUIT] section:
  729c             ?                ?                409.00     0.0140     -0.29      -2.50      0          0

  
  ERROR 209: undefined object ? at line 571 of [CONDUIT] section:
  731c             ?                ?                634.00     0.0140     3.79       0.63       0          0

  
  ERROR 209: undefined object ? at line 572 of [CONDUIT] section:
  744c             ?                ?                1015.00    0.0140     76.25      52.50      0          0

  
  ERROR 209: undefined object ? at line 573 of [CONDUIT] section:
  746c             ?                ?                597.00     0.0140     52.50      27.43      0          0

  
  ERROR 209: undefined object ? at line 574 of [CONDUIT] section:
  747c             ?                ?                640.00     0.0140     27.43      0.78       0          0

  
  ERROR 209: undefined object ? at line 575 of [CONDUIT] section:
  750c             ?                ?                1000.00    0.0140     78.10      8.00       0          0

  
  ERROR 209: undefined object ? at line 576 of [CONDUIT] section:
  752c             ?                ?                1080.00    0.0140     52.95      8.80       0          0

  
  ERROR 209: undefined object ? at line 577 of [CONDUIT] section:
  755c             ?                ?                710.00     0.0140     137.00     60.74      0          0

  
  ERROR 209: undefined object ? at line 578 of [CONDUIT] section:
  757c             ?                ?                970.00     0.0140     60.74      15.00      0          0

  
  ERROR 209: undefined object ? at line 579 of [CONDUIT] section:
  758c             ?                ?                670.00     0.0140     15.00      10.70      0          0

  
  ERROR 209: undefined object ? at line 580 of [CONDUIT] section:
  760c             ?                ?                550.00     0.0140     60.34      2.60       0          0

  
  ERROR 209: undefined object ? at line 581 of [CONDUIT] section:
  762c             ?                ?                143.00     0.0140     16.23      15.05      0          0

  
  ERROR 209: undefined object ? at line 582 of [CONDUIT] section:
  764c             ?                ?                257.00     0.0140     102.46     79.75      0          0

  
  ERROR 209: undefined object ? at line 583 of [CONDUIT] section:
  766c             ?                ?                300.00     0.0140     106.62     89.70      0          0

  
  ERROR 209: undefined object ? at line 584 of [CONDUIT] section:
  768c             ?                ?                819.00     0.0140     122.39     92.78      0          0

  
  ERROR 209: undefined object ? at line 585 of [CONDUIT] section:
  770c             ?                ?                302.00     0.0140     103.00     96.00      0          0

  
  ERROR 209: undefined object ? at line 586 of [CONDUIT] section:
  772c             ?                ?                290.00     0.0140     122.34     104.50     0          0

  
  ERROR 209: undefined object ? at line 587 of [CONDUIT] section:
  774c             ?                ?                328.00     0.0140     77.69      52.95      0          0

  
  ERROR 209: undefined object ? at line 588 of [CONDUIT] section:
  777c             ?                ?                330.00     0.0140     57.46      22.62      0          0

  
  ERROR 209: undefined object ? at line 589 of [CONDUIT] section:
  779c             ?                ?                168.00     0.0140     84.99      57.46      0          0

  
  ERROR 209: undefined object ? at line 590 of [CONDUIT] section:
  781c             ?                ?                62.93      0.0140     33.78      31.26      0          0

  
  ERROR 209: undefined object ? at line 591 of [CONDUIT] section:
  783c             ?                ?                242.60     0.0140     44.41      12.80      0          0

  
  Maximum error count exceeded.

  Analysis begun on:  Sat Mar  7 21:51:32 2026
  Analysis ended on:  Sat Mar  7 21:51:32 2026
  Total elapsed time: < 1 sec