
  EPA STORM WATER MANAGEMENT MODEL - VERSION 5.2 (Build 5.2.4)
  ------------------------------------------------------------

  
  ERROR 209: undefined object 212.2 at line 47 of [CONDUIT] section:
  212.1            212.2            212.3            100.00     0.0140     75.00      75.00      0          0

  
  ERROR 209: undefined object ? at line 48 of [CONDUIT] section:
  214              ?                ?                100.00     0.0140     90.00      75.00      0          0

  
  ERROR 209: undefined object ? at line 49 of [CONDUIT] section:
  CHME216          ?                ?                24.00      0.0140     75.00      85.00      0          0

  
  ERROR 209: undefined object ? at line 50 of [CONDUIT] section:
  218              ?                ?                100.00     0.0140     90.00      75.00      0          0

  
  ERROR 209: undefined object ? at line 52 of [CONDUIT] section:
  221              ?                ?                100.00     0.0140     75.00      85.00      0          0

  
  ERROR 211: invalid number  at line 71 of [XSECT] section:
  WEIR1            RECT_OPEN    0          4.00       0          0          

  
  ERROR 211: invalid number  at line 72 of [XSECT] section:
  WEIR2            RECT_OPEN    0          4.00       0          0          


  Analysis begun on:  Sat Mar  7 21:51:24 2026
  Analysis ended on:  Sat Mar  7 21:51:24 2026
  Total elapsed time: < 1 sec