
  EPA STORM WATER MANAGEMENT MODEL - VERSION 5.2 (Build 5.2.4)
  ------------------------------------------------------------

  
  ERROR 207: duplicate ID name Wet at line 29 of [JUNC] section:
  Wet              15.00      0          10.50      0          0

  
  ERROR 207: duplicate ID name Basin at line 39 of [STORAGE] section:
  Basin            15.00      0          10.90      FUNCTIONAL 0 0          0

  
  ERROR 207: duplicate ID name Basin at line 40 of [STORAGE] section:
  Basin            15.00      0          10.50      FUNCTIONAL 0 0          0


  Analysis begun on:  Sat Mar  7 21:51:25 2026
  Analysis ended on:  Sat Mar  7 21:51:25 2026
  Total elapsed time: < 1 sec