
  EPA STORM WATER MANAGEMENT MODEL - VERSION 5.2 (Build 5.2.4)
  ------------------------------------------------------------

  
  ERROR 209: undefined object ? at line 30 of [CONDUIT] section:
  203              ?                ?                100.00     0.0140     3.00       2.00       0          0

  
  ERROR 209: undefined object ? at line 31 of [CONDUIT] section:
  205              ?                ?                150.00     0          2.00       0          0          0

  
  ERROR 211: invalid number  at line 37 of [XSECT] section:
  205              CIRCULAR     0          0          0          0          1


  Analysis begun on:  Sat Mar  7 21:51:23 2026
  Analysis ended on:  Sat Mar  7 21:51:23 2026
  Total elapsed time: < 1 sec