
  EPA STORM WATER MANAGEMENT MODEL - VERSION 5.2 (Build 5.2.4)
  ------------------------------------------------------------

  Scenario Run :  LID_USAGE 
  WARNING 03: negative offset ignored for Link SWALE
  WARNING 03: negative offset ignored for Link SWALE
  WARNING 02: maximum depth increased for Node 25
  WARNING 02: maximum depth increased for Node 255
  WARNING 02: maximum depth increased for Node 26
  WARNING 02: maximum depth increased for Node 276
  WARNING 02: maximum depth increased for Node 31
  WARNING 02: maximum depth increased for Node 74
  WARNING 02: maximum depth increased for Node 77
  WARNING 02: maximum depth increased for Node JCT-10
  WARNING 02: maximum depth increased for Node JCT-120
  WARNING 02: maximum depth increased for Node JCT-160
  WARNING 02: maximum depth increased for Node JCT-162
  WARNING 02: maximum depth increased for Node JCT-164
  WARNING 02: maximum depth increased for Node JCT-166
  WARNING 02: maximum depth increased for Node JCT-168
  WARNING 02: maximum depth increased for Node JCT-170
  
  *************
  Element Count
  *************
  Number of rain gages ...... 2
  Number of subcatchments ... 30
  Number of nodes ........... 172
  Number of links ........... 235
  Number of pollutants ...... 6
  Number of land uses ....... 2
  
  
  *****************
  Pollutant Summary
  *****************
                               Ppt.      GW         Kdecay
  Name                 Units   Concen.   Concen.    1/days    CoPollutant
  -----------------------------------------------------------------------
  TN                    MG/L      1.00      0.26      0.00
  TSS                   MG/L      1.00      0.26      0.00
  TP                    MG/L      1.00      0.26      0.00
  NH3                   MG/L      1.00      0.26      0.00
  Copper                UG/L      0.01      0.26      0.00
  Ecoli                  #/L    100.00      0.26      0.00
  
  
  ***************
  Landuse Summary
  ***************
                         Sweeping   Maximum      Last
  Name                   Interval   Removal     Swept
  ---------------------------------------------------
  GREENVILLEURBAN            0.00      0.00      0.00
  GREENVILEMixed             0.00      0.00      0.00
  
  
  ****************
  Raingage Summary
  ****************
                                                      Data       Recording
  Name                 Data Source                    Type       Interval 
  ------------------------------------------------------------------------
  RAINGAGE-13          50-YEAR                        VOLUME      15 min.
  RAINGAGE-14          100-YEAR                       VOLUME       1 min.
  
  
  ********************
  Subcatchment Summary
  ********************
  Name                       Area     Width   %Imperv    %Slope Rain Gage            Outlet              
  -----------------------------------------------------------------------------------------------------------
  C10                        9.66   1066.44     90.00    1.4000 RAINGAGE-14          117                 
  C13                        1.80    460.80     89.00    0.8000 RAINGAGE-14          JCT-10              
  C15                        9.88   1078.45     62.00    2.2000 RAINGAGE-14          232                 
  C20                        7.61    946.50     44.00    2.7000 RAINGAGE-13          281                 
  C25                       14.87   1323.16     34.00    2.3000 RAINGAGE-13          1114                
  C30                        6.72    889.38     26.00    3.3000 RAINGAGE-13          384                 
  C33                        7.13    916.17     35.00    2.2000 RAINGAGE-13          1115                
  C35                       13.46   1259.15     40.00    1.1000 RAINGAGE-13          421                 
  C45                       10.69   1122.03     35.00    1.1000 RAINGAGE-13          1001                
  C50                       19.09   1499.25     46.00    1.5000 RAINGAGE-13          387                 
  C55                        6.45    871.82     48.00    3.0000 RAINGAGE-13          183                 
  C57                       12.81   1228.24     48.00    3.0000 RAINGAGE-13          267                 
  C60                       15.31   1342.60     54.00    1.6000 RAINGAGE-13          323                 
  C65                        6.25    857.66     61.00    4.2000 RAINGAGE-13          257                 
  D10                        9.79   1073.60     79.00    1.2000 RAINGAGE-13          136                 
  D15                        5.99    839.99     56.00    1.4000 RAINGAGE-13          31                  
  D20                        6.90    901.64     54.00    3.3000 RAINGAGE-13          19                  
  D21                       14.96   1327.17     21.00    3.3000 RAINGAGE-13          7                   
  D22                       13.95   1281.74     25.00    1.3000 RAINGAGE-13          17                  
  D25                        5.69    818.57     24.00    1.0000 RAINGAGE-13          JCT-184             
  D30                       14.35   1300.15     23.00    0.2000 RAINGAGE-13          201                 
  D32                        3.31    624.65     52.00    0.4000 RAINGAGE-13          956                 
  D35                        8.14    979.19     24.00    1.1000 RAINGAGE-13          348                 
  D40                       10.20   1096.18     27.00    1.5000 RAINGAGE-13          269                 
  D45                       16.00   1372.60     34.00    1.5000 RAINGAGE-13          95                  
  D50                        8.39    994.15     39.00    1.8000 RAINGAGE-13          187                 
  D55                        7.02    909.08     26.00    0.3000 RAINGAGE-13          46                  
  D60                       12.65   1220.37     25.00    1.2000 RAINGAGE-13          200                 
  D65                        8.64   1008.94     24.00    2.5000 RAINGAGE-13          209                 
  D70                        7.28    926.19     44.00    1.6000 RAINGAGE-13          105                 


  *******************
  LID Control Summary
  *******************
                                   No. of        Unit        Unit      % Area    % Imperv      % Perv
  Subcatchment     LID Control      Units        Area       Width     Covered     Treated     Treated
  ---------------------------------------------------------------------------------------------------
  C10              RG                   1       34.86       55.00        0.04        5.00        0.00
  C10              PAVEMENT             1       34.86       55.00        0.04        5.00        0.00
  C10              GREENROOF            1       34.86       55.00        0.04        5.00        0.00
  C10              VEGSWALE             1       34.86       55.00        0.04        5.00        0.00
  C10              RAINB                1       34.86       55.00        0.04        5.00        0.00
  C10              BIOCELL              1       34.86       55.00        0.04        5.00        0.00
  C10              TRENCH               1       34.86       55.00        0.04        5.00        0.00
  C13              RG                   1       27.31       55.00        0.15        5.00        0.00
  C13              PAVEMENT             1       27.31       55.00        0.15        5.00        0.00
  C13              GREENROOF            1       27.31       55.00        0.15        5.00        0.00
  C13              VEGSWALE             1       27.31       55.00        0.15        5.00        0.00
  C13              RAINB                1       27.31       55.00        0.15        5.00        0.00
  C13              BIOCELL              1       27.31       55.00        0.15        5.00        0.00
  C13              TRENCH               1       27.31       55.00        0.15        5.00        0.00
  C15              RG                   1      511.59       55.00        0.52        5.00        0.00
  C15              PAVEMENT             1      511.59       55.00        0.52        5.00        0.00
  C15              GREENROOF            1      511.59       55.00        0.52        5.00        0.00
  C15              VEGSWALE             1      511.59       55.00        0.52        5.00        0.00
  C15              RAINB                1      511.59       55.00        0.52        5.00        0.00
  C15              BIOCELL              1      511.59       55.00        0.52        5.00        0.00
  C15              TRENCH               1      511.59       55.00        0.52        5.00        0.00
  C20              RG                   1      569.68       55.00        0.75        5.00        0.00
  C20              PAVEMENT             1      569.68       55.00        0.75        5.00        0.00
  C20              GREENROOF            1      569.68       55.00        0.75        5.00        0.00
  C20              VEGSWALE             1      569.68       55.00        0.75        5.00        0.00
  C20              RAINB                1      569.68       55.00        0.75        5.00        0.00
  C20              BIOCELL              1      569.68       55.00        0.75        5.00        0.00
  C20              TRENCH               1      569.68       55.00        0.75        5.00        0.00
  C25              RG                   1      381.36       55.00        0.26        5.00        0.00
  C25              PAVEMENT             1      381.36       55.00        0.26        5.00        0.00
  C25              GREENROOF            1      381.36       55.00        0.26        5.00        0.00
  C25              VEGSWALE             1      381.36       55.00        0.26        5.00        0.00
  C25              RAINB                1      381.36       55.00        0.26        5.00        0.00
  C25              BIOCELL              1      381.36       55.00        0.26        5.00        0.00
  C25              TRENCH               1      381.36       55.00        0.26        5.00        0.00
  C30              RG                   1      630.14       55.00        0.94        5.00        0.00
  C30              PAVEMENT             1      630.14       55.00        0.94        5.00        0.00
  C30              GREENROOF            1      630.14       55.00        0.94        5.00        0.00
  C30              VEGSWALE             1      630.14       55.00        0.94        5.00        0.00
  C30              RAINB                1      630.14       55.00        0.94        5.00        0.00
  C30              BIOCELL              1      630.14       55.00        0.94        5.00        0.00
  C30              TRENCH               1      630.14       55.00        0.94        5.00        0.00
  C33              RG                   1      524.53       55.00        0.74        5.00        0.00
  C33              GREENROOF            1      524.53       55.00        0.74        5.00        0.00
  C33              VEGSWALE             1      524.53       55.00        0.74        5.00        0.00
  C33              RAINB                1      524.53       55.00        0.74        5.00        0.00
  C33              BIOCELL              1      524.53       55.00        0.74        5.00        0.00
  C33              TRENCH               1      524.53       55.00        0.74        5.00        0.00
  C35              RG                   1      324.17       55.00        0.24        5.00        0.00
  C35              VEGSWALE             1      324.17       55.00        0.24        5.00        0.00
  C35              RAINB                1      324.17       55.00        0.24        5.00        0.00
  C35              BIOCELL              1      324.17       55.00        0.24        5.00        0.00
  C35              TRENCH               1      324.17       55.00        0.24        5.00        0.00
  C35              PAVEMENT             1      324.17       55.00        0.24        5.00        0.00
  C45              RG                   1      284.94       55.00        0.27        5.00        0.00
  C45              RAINB                1      284.94       55.00        0.27        5.00        0.00
  C45              BIOCELL              1      284.94       55.00        0.27        5.00        0.00
  C45              TRENCH               1      284.94       55.00        0.27        5.00        0.00
  C45              PAVEMENT             1      284.94       55.00        0.27        5.00        0.00
  C45              GREENROOF            1      284.94       55.00        0.27        5.00        0.00
  C50              RG                   1      573.91       55.00        0.30        5.00        0.00
  C50              BIOCELL              1      573.91       55.00        0.30        5.00        0.00
  C50              TRENCH               1      573.91       55.00        0.30        5.00        0.00
  C50              PAVEMENT             1      573.91       55.00        0.30        5.00        0.00
  C50              GREENROOF            1      573.91       55.00        0.30        5.00        0.00
  C50              VEGSWALE             1      573.91       55.00        0.30        5.00        0.00
  C55              RG                   1       58.11       55.00        0.09        5.00        0.00
  C55              TRENCH               1       58.11       55.00        0.09        5.00        0.00
  C55              PAVEMENT             1       58.11       55.00        0.09        5.00        0.00
  C55              GREENROOF            1       58.11       55.00        0.09        5.00        0.00
  C55              VEGSWALE             1       58.11       55.00        0.09        5.00        0.00
  C55              RAINB                1       58.11       55.00        0.09        5.00        0.00
  C57              RG                   1      902.24       55.00        0.70        5.00        0.00
  C57              PAVEMENT             1      902.24       55.00        0.70        5.00        0.00
  C57              GREENROOF            1      902.24       55.00        0.70        5.00        0.00
  C57              VEGSWALE             1      902.24       55.00        0.70        5.00        0.00
  C57              RAINB                1      902.24       55.00        0.70        5.00        0.00
  C57              BIOCELL              1      902.24       55.00        0.70        5.00        0.00
  C60              RG                   1      339.77       55.00        0.22        5.00        0.00
  C60              GREENROOF            1      339.77       55.00        0.22        5.00        0.00
  C60              VEGSWALE             1      339.77       55.00        0.22        5.00        0.00
  C60              RAINB                1      339.77       55.00        0.22        5.00        0.00
  C60              BIOCELL              1      339.77       55.00        0.22        5.00        0.00
  C60              TRENCH               1      339.77       55.00        0.22        5.00        0.00
  C65              RG                   1      605.09       55.00        0.97        5.00        0.00
  C65              VEGSWALE             1      605.09       55.00        0.97        5.00        0.00
  C65              RAINB                1      605.09       55.00        0.97        5.00        0.00
  C65              BIOCELL              1      605.09       55.00        0.97        5.00        0.00
  C65              TRENCH               1      605.09       55.00        0.97        5.00        0.00
  C65              PAVEMENT             1      605.09       55.00        0.97        5.00        0.00
  D10              RG                   1      318.44       55.00        0.33        5.00        0.00
  D10              RAINB                1      318.44       55.00        0.33        5.00        0.00
  D10              BIOCELL              1      318.44       55.00        0.33        5.00        0.00
  D10              TRENCH               1      318.44       55.00        0.33        5.00        0.00
  D10              PAVEMENT             1      318.44       55.00        0.33        5.00        0.00
  D10              GREENROOF            1      318.44       55.00        0.33        5.00        0.00
  D15              RG                   1       50.32       55.00        0.08        5.00        0.00
  D15              BIOCELL              1       50.32       55.00        0.08        5.00        0.00
  D15              TRENCH               1       50.32       55.00        0.08        5.00        0.00
  D15              PAVEMENT             1       50.32       55.00        0.08        5.00        0.00
  D15              GREENROOF            1       50.32       55.00        0.08        5.00        0.00
  D15              VEGSWALE             1       50.32       55.00        0.08        5.00        0.00
  D20              RG                   1       36.15       55.00        0.05        5.00        0.00
  D20              TRENCH               1       36.15       55.00        0.05        5.00        0.00
  D20              PAVEMENT             1       36.15       55.00        0.05        5.00        0.00
  D20              GREENROOF            1       36.15       55.00        0.05        5.00        0.00
  D20              VEGSWALE             1       36.15       55.00        0.05        5.00        0.00
  D20              RAINB                1       36.15       55.00        0.05        5.00        0.00
  D21              RG                   1      577.80       55.00        0.39        5.00        0.00
  D21              PAVEMENT             1      577.80       55.00        0.39        5.00        0.00
  D21              GREENROOF            1      577.80       55.00        0.39        5.00        0.00
  D21              VEGSWALE             1      577.80       55.00        0.39        5.00        0.00
  D21              RAINB                1      577.80       55.00        0.39        5.00        0.00
  D21              BIOCELL              1      577.80       55.00        0.39        5.00        0.00
  D22              RG                   1      385.61       55.00        0.28        5.00        0.00
  D22              GREENROOF            1      385.61       55.00        0.28        5.00        0.00
  D22              VEGSWALE             1      385.61       55.00        0.28        5.00        0.00
  D22              RAINB                1      385.61       55.00        0.28        5.00        0.00
  D22              BIOCELL              1      385.61       55.00        0.28        5.00        0.00
  D22              TRENCH               1      385.61       55.00        0.28        5.00        0.00
  D25              RG                   1      393.20       55.00        0.69        5.00        0.00
  D25              VEGSWALE             1      393.20       55.00        0.69        5.00        0.00
  D25              RAINB                1      393.20       55.00        0.69        5.00        0.00
  D25              BIOCELL              1      393.20       55.00        0.69        5.00        0.00
  D25              TRENCH               1      393.20       55.00        0.69        5.00        0.00
  D25              PAVEMENT             1      393.20       55.00        0.69        5.00        0.00
  D30              RG                   1      265.03       55.00        0.18        5.00        0.00
  D30              RAINB                1      265.03       55.00        0.18        5.00        0.00
  D30              BIOCELL              1      265.03       55.00        0.18        5.00        0.00
  D30              TRENCH               1      265.03       55.00        0.18        5.00        0.00
  D30              PAVEMENT             1      265.03       55.00        0.18        5.00        0.00
  D30              GREENROOF            1      265.03       55.00        0.18        5.00        0.00
  D32              RG                   1       16.72       55.00        0.05        5.00        0.00
  D32              BIOCELL              1       16.72       55.00        0.05        5.00        0.00
  D32              TRENCH               1       16.72       55.00        0.05        5.00        0.00
  D32              PAVEMENT             1       16.72       55.00        0.05        5.00        0.00
  D32              GREENROOF            1       16.72       55.00        0.05        5.00        0.00
  D32              VEGSWALE             1       16.72       55.00        0.05        5.00        0.00
  D35              RG                   1      733.71       55.00        0.90        5.00        0.00
  D35              TRENCH               1      733.71       55.00        0.90        5.00        0.00
  D35              PAVEMENT             1      733.71       55.00        0.90        5.00        0.00
  D35              GREENROOF            1      733.71       55.00        0.90        5.00        0.00
  D35              VEGSWALE             1      733.71       55.00        0.90        5.00        0.00
  D35              RAINB                1      733.71       55.00        0.90        5.00        0.00
  D40              RG                   1      224.62       55.00        0.22        5.00        0.00
  D40              PAVEMENT             1      224.62       55.00        0.22        5.00        0.00
  D40              GREENROOF            1      224.62       55.00        0.22        5.00        0.00
  D40              VEGSWALE             1      224.62       55.00        0.22        5.00        0.00
  D40              RAINB                1      224.62       55.00        0.22        5.00        0.00
  D40              BIOCELL              1      224.62       55.00        0.22        5.00        0.00
  D45              RG                   1      846.45       55.00        0.53        5.00        0.00
  D45              GREENROOF            1      846.45       55.00        0.53        5.00        0.00
  D45              VEGSWALE             1      846.45       55.00        0.53        5.00        0.00
  D45              RAINB                1      846.45       55.00        0.53        5.00        0.00
  D45              BIOCELL              1      846.45       55.00        0.53        5.00        0.00
  D45              TRENCH               1      846.45       55.00        0.53        5.00        0.00
  D50              RG                   1      279.97       55.00        0.33        5.00        0.00
  D50              VEGSWALE             1      279.97       55.00        0.33        5.00        0.00
  D50              RAINB                1      279.97       55.00        0.33        5.00        0.00
  D50              BIOCELL              1      279.97       55.00        0.33        5.00        0.00
  D50              TRENCH               1      279.97       55.00        0.33        5.00        0.00
  D50              PAVEMENT             1      279.97       55.00        0.33        5.00        0.00
  D55              RG                   1      285.20       55.00        0.41        5.00        0.00
  D55              RAINB                1      285.20       55.00        0.41        5.00        0.00
  D55              BIOCELL              1      285.20       55.00        0.41        5.00        0.00
  D55              TRENCH               1      285.20       55.00        0.41        5.00        0.00
  D55              PAVEMENT             1      285.20       55.00        0.41        5.00        0.00
  D55              GREENROOF            1      285.20       55.00        0.41        5.00        0.00
  D60              RG                   1      545.78       55.00        0.43        5.00        0.00
  D60              BIOCELL              1      545.78       55.00        0.43        5.00        0.00
  D60              TRENCH               1      545.78       55.00        0.43        5.00        0.00
  D60              PAVEMENT             1      545.78       55.00        0.43        5.00        0.00
  D60              GREENROOF            1      545.78       55.00        0.43        5.00        0.00
  D60              VEGSWALE             1      545.78       55.00        0.43        5.00        0.00
  D65              RG                   1      827.94       55.00        0.96        5.00        0.00
  D65              TRENCH               1      827.94       55.00        0.96        5.00        0.00
  D65              PAVEMENT             1      827.94       55.00        0.96        5.00        0.00
  D65              GREENROOF            1      827.94       55.00        0.96        5.00        0.00
  D65              VEGSWALE             1      827.94       55.00        0.96        5.00        0.00
  D65              RAINB                1      827.94       55.00        0.96        5.00        0.00
  D70              RG                   1      866.12       55.00        1.19        5.00        0.00
  D70              PAVEMENT             1      866.12       55.00        1.19        5.00        0.00
  D70              GREENROOF            1      866.12       55.00        1.19        5.00        0.00
  D70              VEGSWALE             1      866.12       55.00        1.19        5.00        0.00
  D70              RAINB                1      866.12       55.00        1.19        5.00        0.00
  D70              BIOCELL              1      866.12       55.00        1.19        5.00        0.00
  
  
  ************
  Node Summary
  ************
                                           Invert      Max.    Ponded    External
  Name                 Type                 Elev.     Depth      Area    Inflow  
  -------------------------------------------------------------------------------
  1001                 JUNCTION            708.95      4.40       0.0    Yes
  105                  JUNCTION            678.79      4.77       0.0    Yes
  13                   JUNCTION            689.38      5.51       0.0    Yes
  136                  JUNCTION            665.13     11.17       0.0    Yes
  137                  JUNCTION            690.49      9.69       0.0    Yes
  140                  JUNCTION            666.28      8.08       0.0    Yes
  144                  JUNCTION            666.36      8.25       0.0    Yes
  147                  JUNCTION            686.54      9.14       0.0    Yes
  15                   JUNCTION            687.87      5.40       0.0    Yes
  150                  JUNCTION            681.79      7.34       0.0    Yes
  158                  JUNCTION            670.07      7.00       0.0    Yes
  166                  JUNCTION            670.07      8.43       0.0    Yes
  173                  JUNCTION            670.02      8.98       0.0    Yes
  179                  JUNCTION            668.80      5.01       0.0    Yes
  18                   JUNCTION            694.54      5.71       0.0    Yes
  183                  JUNCTION            670.95     10.05       0.0    Yes
  19                   JUNCTION            671.87     10.43       0.0    Yes
  200                  JUNCTION            689.11      6.00       0.0    Yes
  201                  JUNCTION            693.88      8.77       0.0    Yes
  205                  JUNCTION            664.77     13.17       0.0    Yes
  232                  JUNCTION            671.41      6.48       0.0    Yes
  244                  JUNCTION            678.53      5.08       0.0    Yes
  25                   JUNCTION            673.85      3.50       0.0    Yes
  255                  JUNCTION            668.95     13.00       0.0    Yes
  257                  JUNCTION            670.53     15.52       0.0    Yes
  26                   JUNCTION            665.49     13.00       0.0    Yes
  267                  JUNCTION            696.75      4.11       0.0    Yes
  269                  JUNCTION            667.15     13.73       0.0    Yes
  276                  JUNCTION            680.46      4.00       0.0    Yes
  281                  JUNCTION            672.47      6.55       0.0    Yes
  285                  JUNCTION            681.46      4.24       0.0    Yes
  297                  JUNCTION            674.04      8.02       0.0    Yes
  304                  JUNCTION            674.82      7.33       0.0    Yes
  306                  JUNCTION            679.95      5.95       0.0    Yes
  31                   JUNCTION            671.66      3.50       0.0    Yes
  32                   JUNCTION            697.86      5.15       0.0    Yes
  323                  JUNCTION            678.64     16.65       0.0    Yes
  325                  JUNCTION            677.12      6.25       0.0    Yes
  33                   JUNCTION            693.90      5.00       0.0    Yes
  348                  JUNCTION            682.67      4.99       0.0    Yes
  351                  JUNCTION            675.63     11.88       0.0    Yes
  371                  JUNCTION            697.06      6.94       0.0    Yes
  384                  JUNCTION            681.11     10.19       0.0    Yes
  387                  JUNCTION            693.95     13.85       0.0    Yes
  393                  JUNCTION            688.33      5.08       0.0    Yes
  4                    JUNCTION            691.30      6.87       0.0
  407                  JUNCTION            708.36      5.08       0.0    Yes
  46                   JUNCTION            687.27     15.05       0.0    Yes
  56                   JUNCTION            685.23      7.28       0.0    Yes
  64                   JUNCTION            688.45     13.82       0.0    Yes
  7                    JUNCTION            674.51      6.58       0.0    Yes
  74                   JUNCTION            665.98     13.00       0.0    Yes
  76                   JUNCTION            688.81     13.46       0.0    Yes
  77                   JUNCTION            667.45      3.25       0.0    Yes
  879                  JUNCTION            697.40      5.08       0.0    Yes
  882                  JUNCTION            692.48      8.26       0.0    Yes
  893                  JUNCTION            702.68      5.00       0.0    Yes
  894                  JUNCTION            705.27      2.99       0.0    Yes
  95                   JUNCTION            694.18      3.10       0.0    Yes
  956                  JUNCTION            694.37      6.60       0.0    Yes
  974                  JUNCTION            675.71      6.90       0.0    Yes
  982                  JUNCTION            675.84      7.50       0.0    Yes
  DUMMY2D              JUNCTION            211.49      2.67       0.0
  JCT-10               JUNCTION            670.02     10.01       0.0    Yes
  JCT-100              JUNCTION            716.75      4.00       0.0    Yes
  JCT-102              JUNCTION            716.00      2.98       0.0    Yes
  JCT-104              JUNCTION            714.94      5.83       0.0    Yes
  JCT-106              JUNCTION            713.47      7.01       0.0    Yes
  JCT-108              JUNCTION            712.89      3.94       0.0    Yes
  JCT-110              JUNCTION            710.77      3.82       0.0    Yes
  JCT-112              JUNCTION            719.49      4.08       0.0    Yes
  JCT-114              JUNCTION            719.65      4.00       0.0    Yes
  JCT-116              JUNCTION            718.81      4.00       0.0    Yes
  JCT-118              JUNCTION            714.84      3.99       0.0    Yes
  JCT-12               JUNCTION            669.18     13.42       0.0    Yes
  JCT-120              JUNCTION            713.40      2.00       0.0    Yes
  JCT-122              JUNCTION            712.30      1.70       0.0    Yes
  JCT-124              JUNCTION            708.45      4.04       0.0    Yes
  JCT-126              JUNCTION            703.29      4.04       0.0    Yes
  JCT-128              JUNCTION            699.62      3.35       0.0    Yes
  JCT-130              JUNCTION            715.65      4.00       0.0    Yes
  JCT-132              JUNCTION            715.44      4.00       0.0    Yes
  JCT-134              JUNCTION            712.01      4.00       0.0    Yes
  JCT-136              JUNCTION            707.56      4.00       0.0    Yes
  JCT-138              JUNCTION            680.00     31.63       0.0    Yes
  JCT-14               JUNCTION            668.34     28.71       0.0    Yes
  JCT-140              JUNCTION            682.00     30.49       0.0    Yes
  JCT-142              JUNCTION            685.00     24.96       0.0    Yes
  JCT-144              JUNCTION            685.50     17.23       0.0    Yes
  JCT-146              JUNCTION            686.00     22.41       0.0    Yes
  JCT-148              JUNCTION            667.70     41.48       0.0    Yes
  JCT-150              JUNCTION            670.00     46.25       0.0    Yes
  JCT-152              JUNCTION            675.00     34.64       0.0    Yes
  JCT-154              JUNCTION            689.00      6.99       0.0    Yes
  JCT-156              JUNCTION            680.48      4.00       0.0    Yes
  JCT-16               JUNCTION            696.88      3.95       0.0    Yes
  JCT-160              JUNCTION            671.03      8.26       0.0    Yes
  JCT-162              JUNCTION            670.16      8.26       0.0
  JCT-164              JUNCTION            667.59      7.27       0.0
  JCT-166              JUNCTION            666.94      5.89       0.0
  JCT-168              JUNCTION            664.87     13.00       0.0
  JCT-170              JUNCTION            663.96      9.63       0.0
  JCT-174              JUNCTION            693.27      1.50       0.0
  JCT-176              JUNCTION            694.89      1.50       0.0
  JCT-178              JUNCTION            698.17      1.50       0.0
  JCT-18               JUNCTION            689.98      4.00       0.0    Yes
  JCT-180              JUNCTION            700.25      1.50       0.0
  JCT-182              JUNCTION            702.49      1.50       0.0
  JCT-184              JUNCTION            703.00      1.50       0.0
  JCT-20               JUNCTION            682.57      4.00       0.0    Yes
  JCT-22               JUNCTION            669.11     14.32       0.0    Yes
  JCT-24               JUNCTION            704.83      4.00       0.0    Yes
  JCT-26               JUNCTION            699.61      3.89       0.0    Yes
  JCT-28               JUNCTION            685.15      4.00       0.0    Yes
  JCT-30               JUNCTION            671.61     10.26       0.0    Yes
  JCT-32               JUNCTION            710.18      4.72       0.0    Yes
  JCT-34               JUNCTION            703.12      4.01       0.0    Yes
  JCT-36               JUNCTION            687.39      4.16       0.0    Yes
  JCT-38               JUNCTION            673.11      6.17       0.0    Yes
  JCT-40               JUNCTION            703.45      4.00       0.0    Yes
  JCT-42               JUNCTION            699.39      4.00       0.0    Yes
  JCT-44               JUNCTION            697.16     10.00       0.0    Yes
  JCT-46               JUNCTION            681.31      4.02       0.0    Yes
  JCT-48               JUNCTION            674.61      4.00       0.0    Yes
  JCT-50               JUNCTION            724.28      4.17       0.0    Yes
  JCT-52               JUNCTION            721.00     13.39       0.0    Yes
  JCT-54               JUNCTION            717.67      3.57       0.0    Yes
  JCT-56               JUNCTION            688.05      4.00       0.0    Yes
  JCT-58               JUNCTION            686.05      6.00       0.0    Yes
  JCT-60               JUNCTION            684.21      8.08       0.0    Yes
  JCT-62               JUNCTION            725.41      4.00       0.0    Yes
  JCT-64               JUNCTION            711.33      3.69       0.0    Yes
  JCT-66               JUNCTION            697.57      4.00       0.0    Yes
  JCT-68               JUNCTION            692.00      4.04       0.0    Yes
  JCT-70               JUNCTION            717.84      4.00       0.0    Yes
  JCT-72               JUNCTION            710.40      4.00       0.0    Yes
  JCT-74               JUNCTION            699.81      4.05       0.0    Yes
  JCT-76               JUNCTION            697.17      4.00       0.0    Yes
  JCT-78               JUNCTION            712.19      4.14       0.0    Yes
  JCT-80               JUNCTION            710.36      3.92       0.0    Yes
  JCT-82               JUNCTION            715.11      4.00       0.0    Yes
  JCT-84               JUNCTION            714.03      3.68       0.0    Yes
  JCT-86               JUNCTION            725.62      4.31       0.0    Yes
  JCT-88               JUNCTION            722.01      4.26       0.0    Yes
  JCT-90               JUNCTION            718.89      4.08       0.0    Yes
  JCT-92               JUNCTION            715.36      4.00       0.0    Yes
  JCT-94               JUNCTION            711.00      8.97       0.0    Yes
  JCT-96               JUNCTION            702.00     14.76       0.0    Yes
  JCT-98               JUNCTION            720.80      4.11       0.0    Yes
  DUMMYOUTFALL         OUTFALL             210.00      0.10       0.0
  OFALL-10             OUTFALL             680.00      4.00       0.0
  OFALL-12             OUTFALL             660.00      9.63       0.0
  VIADUCT1             OUTFALL             696.00      2.00       0.0
  VIADUCT2             OUTFALL             692.00      2.00       0.0
  333                  DIVIDER             676.84      8.22       0.0    Yes
  1114                 STORAGE             683.64      2.44       0.0
  1115                 STORAGE             682.50     10.34       0.0
  117                  STORAGE             666.80     65.62       0.0
  163                  STORAGE             668.13     65.62       0.0
  17                   STORAGE             682.94      9.78       0.0
  187                  STORAGE             671.58      5.80       0.0
  229                  STORAGE             674.01     65.62       0.0
  421                  STORAGE             705.55     65.62       0.0
  83                   STORAGE             660.50      9.84       0.0    Yes
  989                  STORAGE             684.03      3.45       0.0
  STOR-10              STORAGE             680.00     31.68       0.0
  STOR-12              STORAGE             685.00     25.08       0.0
  STOR-14              STORAGE             657.50     51.48       0.0
  STOR-16              STORAGE             652.83     31.65       0.0
  260                  STORAGE             672.44      5.00       0.0    Yes
  261                  STORAGE             672.62      5.00       0.0    Yes
  209                  STORAGE             671.05     12.20       0.0    Yes
  
  
  ************
  Link Summary
  ************
  Name             From Node        To Node          Type            Length    %Slope Roughness
  ---------------------------------------------------------------------------------------------
  1001OF           1001             407              CONDUIT          350.0    0.1671    0.0300
  105OF            105              136              CONDUIT          312.0    4.3808    0.0300
  1114             1114             333              CONDUIT           50.0   13.7337    0.0150
  117              117              83               CONDUIT          168.0    3.7533    0.0150
  117OF            117              77               CONDUIT          170.0   -0.3835    0.0350
  1209             201              882              CONDUIT          229.1    0.6106    0.0150
  1211             882              137              CONDUIT          214.0    0.9310    0.0150
  1225             137              76               CONDUIT          399.6    0.4192    0.0150
  1226             32               879              CONDUIT           93.0    0.4851    0.0150
  1228             893              894              CONDUIT           49.6   -5.2182    0.0150
  1230             893              384              CONDUIT          592.5    3.6436    0.0150
  1249             393              989              CONDUIT          379.2    1.1345    0.0150
  1269             200              956              CONDUIT          430.5   -1.2210    0.0150
  1270             137              200              CONDUIT          448.1    0.3064    0.0150
  1275             4                13               CONDUIT          236.0    0.8149    0.0150
  1276             13               15               CONDUIT          179.0    0.8430    0.0150
  1277             46               17               CONDUIT          789.5    0.5481    0.0150
  1281             150              229              CONDUIT          538.6    1.4448    0.0150
  1284             147              209              CONDUIT          456.4    3.3949    0.0150
  1285             209              269              CONDUIT          460.0    0.8490    0.0150
  1288             351              384              CONDUIT          350.3   -1.5636    0.0150
  1289             384              333              CONDUIT          494.0    0.8643    0.0150
  1290             269              297              CONDUIT          836.1   -0.8244    0.0150
  1291             304              297              CONDUIT           64.1    1.2079    0.0150
  1293             281              261              CONDUIT          168.4   -0.0885    0.0150
  1294             306              281              CONDUIT          301.0    2.4831    0.0150
  1297             387              371              CONDUIT          233.9   -1.3297    0.0150
  1298             371              323              CONDUIT          507.9    3.6288    0.0150
  1299             33               56               CONDUIT          463.6    1.8705    0.0150
  1300             56               105              CONDUIT          404.0    1.5957    0.0150
  1306             136              77               CONDUIT          400.0   -0.5805    0.0200
  1307             140              117              CONDUIT          216.1   -0.2420    0.0150
  1308             205              140              CONDUIT          450.0   -0.3347    0.0150
  1312             285              244              CONDUIT          400.7    0.7299    0.0150
  1314             257              244              CONDUIT          141.7   -5.6585    0.0150
  1315             7                19               CONDUIT          424.6    0.6199    0.0150
  1316             33               17               CONDUIT          459.9    2.3839    0.0150
  1317             187              158              CONDUIT          251.9    0.6011    0.0150
  1328             276              232              CONDUIT          333.7    2.7120    0.0150
  136OF            136              140              CONDUIT          260.0   -0.4412    0.0350
  13OF             JCT-176          JCT-174          CONDUIT          136.0    1.1938    0.0350
  140OF            140              117              CONDUIT          220.0   -0.2377    0.0350
  144              144              255              CONDUIT          213.5   -1.2171    0.0150
  144OF            144              255              CONDUIT           90.0   -2.8879    0.0350
  150OF            150              229              CONDUIT          540.0    1.4411    0.0350
  158              158              136              CONDUIT          153.2    3.2240    0.0150
  158OF            158              136              CONDUIT          150.0    3.2924    0.0300
  15OF             JCT-174          17               CONDUIT           44.5    0.6007    0.0350
  163OF            163              144              CONDUIT           90.0    1.9715    0.0300
  166OF            166              187              CONDUIT          207.0   -0.7276    0.0300
  1791OF           179              163              CONDUIT           90.0    0.7400    0.0300
  179OF            179              117              CONDUIT          200.0    0.9980    0.0300
  17OF             17               7                CONDUIT          400.0    2.1090    0.0350
  183OF            183              163              CONDUIT          200.0    1.4106    0.0300
  187OF            187              158              CONDUIT          250.0    0.6056    0.0350
  18OF             JCT-180          JCT-178          CONDUIT          386.3    0.5394    0.0350
  191OF            7                19               CONDUIT          425.0    0.6193    0.0350
  19OF             19               25               CONDUIT          263.0   -0.7510    0.0350
  200              200              147              CONDUIT          393.8    0.6544    0.0150
  200OF            200              209              CONDUIT          769.8    2.3468    0.0400
  201OF            201              956              CONDUIT          450.0   -0.1093    0.0350
  205OF            205              179              CONDUIT          200.0   -2.0129    0.0300
  229OF            229              187              CONDUIT          400.0    0.6075    0.0350
  229OFB           229              260              CONDUIT          260.0    0.6035    0.0300
  232OF            232              187              CONDUIT          250.0   -0.0684    0.0300
  244OF            244              205              CONDUIT          210.0    6.5679    0.0350
  257OF            257              244              CONDUIT          140.0   -5.7265    0.0330
  25OF             25               31               CONDUIT          186.0    1.1780    0.0350
  260OF            260              187              CONDUIT          400.0    0.2153    0.0350
  267OF            267              183              CONDUIT          520.0    4.9680    0.0350
  269OF            269              229              CONDUIT          300.0   -2.2879    0.0350
  276OF            276              232              CONDUIT          340.0    2.6621    0.0350
  281OF            281              261              CONDUIT          160.0   -0.0931    0.0300
  2851OF           285              244              CONDUIT          400.0    0.7313    0.0400
  285OF            285              276              CONDUIT          100.0    1.0021    0.0300
  297OF            297              281              CONDUIT          400.0    0.3918    0.0300
  306OF            306              281              CONDUIT          250.0    2.9905    0.0300
  3084             989              351              CONDUIT          165.2    5.0909    0.0150
  3091             348              351              CONDUIT           14.4   55.9828    0.0150
  31OF             31               26               CONDUIT          120.0    5.1485    0.0350
  3231OF           323              285              CONDUIT          370.0   -0.7622    0.0300
  323OF            323              306              CONDUIT          200.0   -0.6540    0.0300
  325OF            325              982              CONDUIT           60.0    2.1305    0.0400
  3289             333              325              CONDUIT          158.9   -0.1780    0.0150
  3293             325              982              CONDUIT           57.9    2.2061    0.0150
  32OF             JCT-184          JCT-182          CONDUIT           97.0    0.5329    0.0350
  3339             982              974              CONDUIT          159.8    0.0826    0.0150
  3349             974              304              CONDUIT           93.6    0.9560    0.0150
  3355             1001             407              CONDUIT          341.9    0.1711    0.0150
  3423             76               64               CONDUIT          137.3    0.2623    0.0150
  3424             64               46               CONDUIT          178.4    0.6642    0.0150
  348OF            348              351              CONDUIT           20.0   37.6007    0.0400
  3493             95               150              CONDUIT          386.1    3.2091    0.0150
  3510             297              261              CONDUIT          326.7    0.4340    0.0150
  3511             229              260              CONDUIT          281.7    0.5570    0.0150
  351OF            351              1114             CONDUIT           50.0  -16.2296    0.0300
  3521             323              306              CONDUIT          167.3   -0.7817    0.0150
  3527             407              387              CONDUIT          415.7    3.4686    0.0150
  3629             879              18               CONDUIT          284.9    1.0049    0.0150
  3656             260              187              CONDUIT          363.8    0.2367    0.0150
  3682             166              187              CONDUIT          217.1   -0.6937    0.0150
  3690             281              232              CONDUIT          395.4    0.2694    0.0150
  371OF            371              323              CONDUIT          200.0    9.2493    0.0300
  3843             18               4                CONDUIT          416.0    0.7793    0.0150
  384OF            384              1114             CONDUIT          150.0   -1.6889    0.0300
  3860             15               17               CONDUIT           45.0   11.0046    0.0150
  3873             105              136              CONDUIT          282.2    4.8444    0.0150
  387OF            387              371              CONDUIT          150.0   -2.0738    0.0300
  4030             173              140              CONDUIT          202.4    1.8517    0.0150
  4043             244              205              CONDUIT          215.4    6.4015    0.0150
  407OF            407              387              CONDUIT          415.0    3.4749    0.0300
  4103             17               7                CONDUIT          399.0    2.1145    0.0150
  4117             19               25               CONDUIT          262.8   -0.7517    0.0150
  4130             25               31               CONDUIT          186.3    1.1762    0.0150
  4155             205              179              CONDUIT          201.6   -1.9973    0.0150
  4195             77               74               CONDUIT           55.8    2.6489    0.0150
  4202             183              163              CONDUIT          182.2    1.5481    0.0150
  4203             179              163              CONDUIT           92.6    0.7196    0.0150
  421OF            421              894              CONDUIT          120.0    0.2333    0.0300
  4220             31               26               CONDUIT          120.0    5.1485    0.0150
  4232             163              144              CONDUIT           83.3    2.1300    0.0150
  4OF              JCT-178          JCT-176          CONDUIT          274.9    1.1931    0.0350
  5002             232              JCT-10           CONDUIT          375.6    0.3688    0.0150
  5003             267              183              CONDUIT          507.5    5.0904    0.0150
  77OF             77               74               CONDUIT           60.0    2.4624    0.0400
  7OF              7                JCT-162          CONDUIT          838.1    0.5183    0.0400
  879OF            JCT-182          JCT-180          CONDUIT          281.9    0.7928    0.0350
  882OF            882              200              CONDUIT          559.2    0.6018    0.0400
  893OF            893              384              CONDUIT          575.0    3.7550    0.0300
  8941OF           894              VIADUCT1         CONDUIT          400.0    2.3181    0.0400
  894OF            894              893              CONDUIT           70.0    3.6982    0.0300
  9561OF           956              348              CONDUIT          930.0    1.2583    0.0300
  9562OF           956              VIADUCT2         CONDUIT          350.0    0.6772    0.0400
  956OF            956              200              CONDUIT          430.0    1.2224    0.0350
  95OF             95               150              CONDUIT          390.0    3.1772    0.0350
  974OF            974              281              CONDUIT          360.0    0.8989    0.0300
  982OF            982              974              CONDUIT          160.0    0.0825    0.0300
  989OF            989              351              CONDUIT          209.7    4.0080    0.0300
  CDT-101          JCT-102          JCT-104          CONDUIT          382.3    0.2768    0.0130
  CDT-103          JCT-104          JCT-106          CONDUIT          393.6    0.3728    0.0130
  CDT-105          JCT-106          JCT-108          CONDUIT          376.8    0.1534    0.0130
  CDT-107          JCT-108          JCT-110          CONDUIT          377.5    0.5630    0.0130
  CDT-109          JCT-110          JCT-96           CONDUIT          353.6    2.4802    0.0130
  CDT-11           JCT-10           JCT-12           CONDUIT          488.7    0.1721    0.0130
  CDT-111          JCT-112          JCT-104          CONDUIT          319.4    1.4267    0.0130
  CDT-113          JCT-114          JCT-70           CONDUIT          582.7    0.3104    0.0130
  CDT-115          JCT-116          JCT-118          CONDUIT          359.5    1.1056    0.0130
  CDT-117          JCT-118          JCT-120          CONDUIT          376.4    0.3823    0.0130
  CDT-119          JCT-120          JCT-122          CONDUIT          325.5    0.3379    0.0130
  CDT-121          JCT-122          JCT-124          CONDUIT          382.8    1.0069    0.0130
  CDT-123          JCT-124          JCT-126          CONDUIT          405.3    1.2721    0.0130
  CDT-125          JCT-126          JCT-128          CONDUIT          325.5    1.1269    0.0130
  CDT-127          JCT-128          STOR-12          CONDUIT          298.4    4.9057    0.0130
  CDT-129          JCT-130          JCT-124          CONDUIT          388.2    1.8559    0.0130
  CDT-13           JCT-12           JCT-14           CONDUIT          364.2    0.2309    0.0130
  CDT-131          JCT-132          JCT-120          CONDUIT          313.9    0.6506    0.0130
  CDT-133          JCT-134          JCT-136          CONDUIT          382.3    1.1642    0.0130
  CDT-135          JCT-136          STOR-14          CONDUIT          431.9   11.6686    0.0130
  CDT-137          JCT-138          JCT-140          CONDUIT          239.6   -0.8348    0.0130
  CDT-141          JCT-140          JCT-142          CONDUIT          594.6   -0.5046    0.0130
  CDT-143          JCT-142          JCT-144          CONDUIT          331.9   -0.1506    0.0130
  CDT-147          JCT-144          JCT-146          CONDUIT          305.1   -0.1639    0.0130
  CDT-149          JCT-146          JCT-148          CONDUIT          797.5    2.2951    0.0130
  CDT-15           JCT-14           STOR-14          CONDUIT          316.2    3.4306    0.0130
  CDT-151          JCT-148          JCT-150          CONDUIT          371.1   -0.6198    0.0130
  CDT-153          JCT-150          JCT-152          CONDUIT          330.4   -1.5133    0.0130
  CDT-155          JCT-152          JCT-154          CONDUIT         1951.1   -0.7175    0.0130
  CDT-157          JCT-156          JCT-154          CONDUIT         1062.0   -0.8028    0.0130
  CDT-159          JCT-154          JCT-60           CONDUIT          385.6    1.2419    0.0130
  CDT-161          JCT-60           OFALL-10         CONDUIT          180.1    2.3389    0.0100
  CDT-163          JCT-160          JCT-162          CONDUIT          798.6    0.1082    0.0350
  CDT-165          JCT-162          JCT-164          CONDUIT          921.8    0.2792    0.0350
  CDT-167          JCT-164          JCT-166          CONDUIT         1006.5    0.0641    0.0350
  CDT-169          JCT-166          JCT-168          CONDUIT          506.5    0.4099    0.0350
  CDT-17           JCT-16           JCT-18           CONDUIT          339.0    2.0374    0.0130
  CDT-171          JCT-168          JCT-170          CONDUIT          407.7    0.2215    0.0350
  CDT-175          JCT-170          OFALL-12         CONDUIT          353.7    1.1208    0.0350
  CDT-19           JCT-18           JCT-20           CONDUIT          366.9    2.0178    0.0130
  CDT-21           JCT-20           JCT-22           CONDUIT          380.4    3.5405    0.0130
  CDT-23           JCT-22           STOR-16          CONDUIT          394.3    4.1333    0.0130
  CDT-25           JCT-24           JCT-26           CONDUIT          373.6    1.3970    0.0130
  CDT-27           JCT-26           JCT-28           CONDUIT          358.3    4.0415    0.0130
  CDT-29           JCT-28           JCT-30           CONDUIT          379.2    3.5711    0.0130
  CDT-31           JCT-30           JCT-22           CONDUIT          384.8    0.6497    0.0130
  CDT-33           JCT-32           JCT-34           CONDUIT          333.2    2.1206    0.0130
  CDT-35           JCT-34           JCT-36           CONDUIT          404.0    3.8960    0.0130
  CDT-37           JCT-36           JCT-38           CONDUIT          349.0    4.0959    0.0130
  CDT-39           JCT-38           JCT-30           CONDUIT          392.8    0.3818    0.0130
  CDT-43           JCT-42           JCT-44           CONDUIT          402.7    0.5535    0.0130
  CDT-45           JCT-44           JCT-46           CONDUIT          388.7    4.0804    0.0130
  CDT-47           JCT-46           JCT-48           CONDUIT          368.1    1.8209    0.0130
  CDT-49           JCT-48           JCT-38           CONDUIT          379.2    0.3956    0.0130
  CDT-51           JCT-50           JCT-52           CONDUIT          342.4    0.9584    0.0130
  CDT-53           JCT-52           JCT-54           CONDUIT          308.0    1.0815    0.0130
  CDT-55           JCT-54           JCT-56           CONDUIT          570.8    5.1957    0.0130
  CDT-57           JCT-56           JCT-58           CONDUIT          336.7    0.5941    0.0130
  CDT-59           JCT-58           JCT-60           CONDUIT          490.8    0.3755    0.0130
  CDT-61           JCT-62           JCT-64           CONDUIT          559.4    2.5181    0.0130
  CDT-63           JCT-64           JCT-66           CONDUIT          336.9    4.0875    0.0130
  CDT-65           JCT-66           JCT-68           CONDUIT          604.8    0.9204    0.0130
  CDT-67           JCT-68           JCT-60           CONDUIT          363.8    2.1421    0.0130
  CDT-69           JCT-70           JCT-72           CONDUIT          342.4    2.1750    0.0130
  CDT-71           JCT-72           JCT-74           CONDUIT          348.1    3.0419    0.0130
  CDT-73           JCT-74           JCT-76           CONDUIT          325.3    0.8141    0.0130
  CDT-75           JCT-76           JCT-68           CONDUIT          384.8    1.3419    0.0130
  CDT-77           JCT-78           JCT-80           CONDUIT          365.0    0.5011    0.0130
  CDT-79           JCT-80           JCT-74           CONDUIT          376.4    2.8023    0.0130
  CDT-81           JCT-82           JCT-84           CONDUIT          353.6    0.3034    0.0130
  CDT-83           JCT-84           JCT-80           CONDUIT          399.3    0.9208    0.0130
  CDT-85           JCT-86           JCT-88           CONDUIT          308.0    1.1744    0.0130
  CDT-87           JCT-88           JCT-90           CONDUIT          416.9    0.7483    0.0130
  CDT-89           JCT-90           JCT-92           CONDUIT          383.6    0.9189    0.0130
  CDT-91           JCT-92           JCT-94           CONDUIT          435.3    1.0017    0.0130
  CDT-93           JCT-94           JCT-96           CONDUIT          730.8    1.2316    0.0100
  CDT-95           JCT-96           STOR-10          CONDUIT          358.6    6.1463    0.0130
  CDT-97           JCT-98           JCT-100          CONDUIT          377.1    1.0746    0.0130
  CDT-99           JCT-100          JCT-102          CONDUIT          302.5    0.2483    0.0130
  R255             255              JCT-168          CONDUIT          131.0    3.1215    0.0350
  R26              26               74               CONDUIT          800.0   -0.0609    0.0350
  R74              74               83               CONDUIT          200.0    2.7390    0.0350
  R83              83               255              CONDUIT          400.0   -2.1142    0.0350
  RINFLOW          19               JCT-164          CONDUIT          324.6    1.3207    0.0350
  SWALE            DUMMY2D          DUMMYOUTFALL     CONDUIT          285.0    0.5243    0.0100
  PUMP-13          STOR-16          JCT-156          TYPE3 PUMP  
  PUMP-15          STOR-14          JCT-148          TYPE3 PUMP  
  PUMP-17          STOR-12          JCT-142          TYPE3 PUMP  
  PUMP-19          STOR-10          JCT-138          TYPE3 PUMP  
  PUMP1@1115-351   1115             351              TYPE4 PUMP  
  ORI-11           JCT-10           173              ORIFICE     
  CDT-41           JCT-40           JCT-42           ORIFICE     
  WEIR1@260-261    261              260              WEIR        
  Vnotch1          261              260              WEIR        
  Transverse1      261              260              WEIR        
  2601OF           261              260              WEIR        
  OLET-11          1115             351              OUTLET      
  
  
  *********************
  Cross Section Summary
  *********************
                                        Full     Full     Hyd.     Max.   No. of     Full
  Conduit          Shape               Depth     Area     Rad.    Width  Barrels     Flow
  ---------------------------------------------------------------------------------------
  1001OF           TRAPEZOIDAL          2.00   116.00     1.74    66.00        1 229103.12
  105OF            TRAPEZOIDAL          2.00   116.09     1.75    66.01        1 1174239.21
  1114             RECT_OPEN            1.00     1.00     0.33     1.00        2 11878.13
  117              TRIANGULAR           9.84    48.44     2.20     9.84        1 1058562.76
  117OF            TRAPEZOIDAL          2.00   116.00     1.74    66.00        1 297468.46
  1209             PARABOLIC            1.50     1.00     0.31     1.00        1  2374.81
  1211             POWER                1.50     1.00     0.31     1.00        1  2934.55
  1225             FORCE_MAIN           2.00     3.14     0.50     2.00        1 10633.22
  1226             FILLED_CIRCULAR      1.00     1.57     0.31     2.00        2  3359.01
  1228             RECT_CLOSED          1.00     1.00     0.25     1.00        1  6043.98
  1230             HORIZ_ELLIPSE        1.00     1.27     0.31     1.00        1  7336.27
  1249             DUMMY                0.00     0.00     0.00     0.00        1     0.00
  1269             CATENARY             1.00     0.70     0.23     0.90        1  1953.19
  1270             SEMICIRCULAR         0.83     0.87     0.24     1.36        1  1262.32
  1275             BASKETHANDLE         2.00     3.14     0.49     1.89        2 11808.17
  1276             CIRCULAR             2.00     3.14     0.50     2.00        2 12115.01
  1277             CIRCULAR             4.00    12.57     1.00     4.00        1 62024.43
  1281             CIRCULAR             1.25     1.23     0.31     1.25        1  4528.86
  1284             CIRCULAR             1.50     1.77     0.38     1.50        1 11288.58
  1285             CIRCULAR             1.50     1.77     0.38     1.50        1  5645.21
  1288             CIRCULAR             3.00     7.07     0.75     3.00        2 48645.29
  1289             CIRCULAR             2.75     5.94     0.69     2.75        1 28677.86
  1290             MODBASKETHANDLE      1.66     1.62     0.32     1.00        1  4550.07
  1291             EGG                  2.75     3.86     0.53     1.83        1 18550.75
  1293             HORSESHOE            3.50    10.16     0.89     3.50        1 18616.30
  1294             HORSESHOE            1.00     0.83     0.25     1.00        1  3492.54
  1297             GOTHIC               1.00     0.66     0.23     0.84        1  1874.47
  1298             CATENARY             1.00     0.70     0.23     0.90        1  3367.21
  1299             CIRCULAR             0.83     0.54     0.21     0.83        1  1729.19
  1300             CIRCULAR             1.00     0.79     0.25     1.00        1  2624.97
  1306             CIRCULAR             3.25     8.30     0.81     3.25        1 27519.45
  1307             VERT_ELLIPSE         1.52     1.20     0.30     0.97        1  1743.38
  1308             CIRCULAR             3.00     7.07     0.75     3.00        1 22505.17
  1312             CIRCULAR             1.25     1.23     0.31     1.25        1  3218.97
  1314             CIRCULAR             1.00     0.79     0.25     1.00        1  4943.13
  1315             CIRCULAR             3.50     9.62     0.87     3.50        1 46202.23
  1316             CIRCULAR             0.83     0.54     0.21     0.83        1  1952.11
  1317             CIRCULAR             3.25     8.30     0.81     3.25        1 37336.34
  1328             CIRCULAR             0.83     0.54     0.21     0.83        1  2082.12
  136OF            TRAPEZOIDAL          2.00   116.00     1.74    66.00        1 319034.13
  13OF             TRAPEZOIDAL          1.50    54.00     1.27    42.00        1 198174.51
  140OF            TRAPEZOIDAL          2.00   116.00     1.74    66.00        1 234196.34
  144              CIRCULAR             2.00     3.14     0.50     2.00        1 14556.78
  144OF            TRAPEZOIDAL          2.00   116.00     1.74    66.00        1 816260.58
  150OF            TRAPEZOIDAL          4.00   264.00     3.18    82.00        1 1958734.20
  158              CIRCULAR             3.25     8.30     0.81     3.25        1 86471.47
  158OF            TRAPEZOIDAL          2.00   116.00     1.74    66.00        1 1016825.34
  15OF             TRAPEZOIDAL          1.50    54.00     1.27    42.00        1 140571.84
  163OF            TRAPEZOIDAL          2.00   116.00     1.74    66.00        1 786836.55
  166OF            TRAPEZOIDAL          2.00   116.00     1.74    66.00        1 477991.14
  1791OF           TRAPEZOIDAL          2.00   116.00     1.74    66.00        1 482068.32
  179OF            TRAPEZOIDAL          2.00   116.00     1.74    66.00        1 559838.64
  17OF             TRAPEZOIDAL          2.00   116.00     1.74    66.00        1 697549.57
  183OF            TRAPEZOIDAL          2.00   116.00     1.74    66.00        1 665571.83
  187OF            TRAPEZOIDAL          2.00   116.00     1.74    66.00        1 373797.94
  18OF             TRAPEZOIDAL          1.50    54.00     1.27    42.00        1 133213.31
  191OF            TRAPEZOIDAL          2.00   116.00     1.74    66.00        1 378000.73
  19OF             TRAPEZOIDAL          2.00   116.00     1.74    66.00        1 416247.65
  200              CIRCULAR             1.25     1.23     0.31     1.25        1  3047.88
  200OF            TRAPEZOIDAL          2.00   116.00     1.74    66.00        1 643847.04
  201OF            TRAPEZOIDAL          2.00   116.00     1.74    66.00        1 158824.11
  205OF            TRAPEZOIDAL          2.00   116.00     1.74    66.00        1 795057.81
  229OF            TRAPEZOIDAL          4.00   264.00     3.18    82.00        1 1271772.33
  229OFB           CIRCULAR             1.00     0.79     0.25     1.00        1   807.14
  232OF            TRAPEZOIDAL          2.00   116.00     1.74    66.00        1 146559.81
  244OF            TRAPEZOIDAL          2.00   116.00     1.74    66.00        1 1230989.28
  257OF            TRAPEZOIDAL          2.00   116.00     1.74    66.00        1 1219099.38
  25OF             TRAPEZOIDAL          2.00   116.00     1.74    66.00        1 521338.59
  260OF            TRAPEZOIDAL          2.00   116.00     1.74    66.00        1 222849.84
  267OF            TRAPEZOIDAL          2.00   116.00     1.74    66.00        1 1070613.36
  269OF            TRAPEZOIDAL          4.00   264.00     3.18    82.00        1 2468048.64
  276OF            TRAPEZOIDAL          2.00   116.00     1.74    66.00        1 783707.08
  281OF            TRAPEZOIDAL          2.00   116.00     1.74    66.00        1 171009.41
  2851OF           TRAPEZOIDAL          2.00   116.00     1.74    66.00        1 359407.22
  285OF            TRAPEZOIDAL          4.00   264.00     3.18    82.00        1 1905564.64
  297OF            TRAPEZOIDAL          2.00   116.00     1.74    66.00        1 350746.18
  306OF            TRAPEZOIDAL          2.00   116.00     1.74    66.00        1 969083.78
  3084             CIRCULAR             2.50     4.91     0.62     2.50        1 53978.49
  3091             CIRCULAR             2.50     4.91     0.62     2.50        1 178999.60
  31OF             TRAPEZOIDAL          2.00   116.00     1.74    66.00        1 1089881.71
  3231OF           TRAPEZOIDAL          4.00   264.00     3.18    82.00        1 1661915.44
  323OF            TRAPEZOIDAL          2.00   116.00     1.74    66.00        1 453189.98
  325OF            TRAPEZOIDAL          2.00   116.00     1.74    66.00        1 613461.22
  3289             CIRCULAR             2.75     5.94     0.69     2.75        1 13015.82
  3293             CIRCULAR             2.75     5.94     0.69     2.75        1 45815.82
  32OF             TRAPEZOIDAL          1.50    54.00     1.27    42.00        1 132407.95
  3339             CIRCULAR             2.75     5.94     0.69     2.75        1  8866.36
  3349             CIRCULAR             2.75     5.94     0.69     2.75        1 30160.98
  3355             CIRCULAR             0.83     0.54     0.21     0.83        1   522.95
  3423             CIRCULAR             2.50     4.91     0.62     2.50        1 12252.38
  3424             CIRCULAR             2.50     4.91     0.62     2.50        1 19496.83
  348OF            TRAPEZOIDAL          2.00   116.00     1.74    66.00        1 2577188.82
  3493             CIRCULAR             1.25     1.23     0.31     1.25        1  6749.44
  3510             CIRCULAR             2.75     5.94     0.69     2.75        1 20320.77
  3511             CIRCULAR             1.25     1.23     0.31     1.25        1  2811.87
  351OF            TRAPEZOIDAL          2.00   116.00     1.74    66.00        1 2257568.07
  3521             CIRCULAR             1.00     0.79     0.25     1.00        1  1837.32
  3527             CIRCULAR             0.83     0.54     0.21     0.83        1  2354.71
  3629             CIRCULAR             2.00     3.14     0.50     2.00        2 13227.08
  3656             CIRCULAR             3.25     8.30     0.81     3.25        1 23427.94
  3682             CIRCULAR             1.00     0.79     0.25     1.00        1  1730.70
  3690             VERT_ELLIPSE         1.14     0.69     0.22     0.74        1   878.29
  371OF            TRAPEZOIDAL          2.00   116.00     1.74    66.00        1 1704282.14
  3843             CIRCULAR             2.00     3.14     0.50     2.00        2 11648.17
  384OF            TRAPEZOIDAL          2.00   116.00     1.74    66.00        1 728265.46
  3860             CIRCULAR             2.00     3.14     0.50     2.00        2 43770.85
  3873             CIRCULAR             1.00     0.79     0.25     1.00        1  4573.73
  387OF            TRAPEZOIDAL          4.00   264.00     3.18    82.00        1 2741322.75
  4030             VERT_ELLIPSE         2.87     4.28     0.56     1.83        1 26472.63
  4043             CIRCULAR             1.25     1.23     0.31     1.25        1  9532.79
  407OF            TRAPEZOIDAL          2.00   116.00     1.74    66.00        1 1044614.13
  4103             CIRCULAR             2.50     4.91     0.62     2.50        1 34787.69
  4117             CIRCULAR             3.50     9.62     0.87     3.50        1 50876.10
  4130             CIRCULAR             3.50     9.62     0.87     3.50        1 63642.48
  4155             CIRCULAR             1.25     1.23     0.31     1.25        1  5324.78
  4195             CIRCULAR             3.25     8.30     0.81     3.25        1 78379.59
  4202             CIRCULAR             1.50     1.77     0.38     1.50        1  7623.10
  4203             CIRCULAR             1.25     1.23     0.31     1.25        1  3196.16
  421OF            TRAPEZOIDAL          2.00   116.00     1.74    66.00        1 270692.22
  4220             CIRCULAR             3.00     7.07     0.75     3.00        1 88270.21
  4232             CIRCULAR             2.00     3.14     0.50     2.00        1 19256.87
  4OF              TRAPEZOIDAL          1.50    54.00     1.27    42.00        1 198113.87
  5002             VERT_ELLIPSE         1.14     0.69     0.22     0.74        1  1027.61
  5003             CIRCULAR             1.00     0.79     0.25     1.00        1  4688.41
  77OF             TRAPEZOIDAL          2.00   116.00     1.74    66.00        1 659520.78
  7OF              TRAPEZOIDAL          2.00   116.00     1.74    66.00        1 302582.89
  879OF            TRAPEZOIDAL          1.50    54.00     1.27    42.00        1 161493.19
  882OF            TRAPEZOIDAL          2.00   116.00     1.74    66.00        1 326042.28
  893OF            TRAPEZOIDAL          2.00   116.00     1.74    66.00        1 1085903.69
  8941OF           TRAPEZOIDAL          2.00   116.00     1.74    66.00        1 639906.13
  894OF            TRAPEZOIDAL          2.00   116.00     1.74    66.00        1 1077666.68
  9561OF           TRAPEZOIDAL          2.00   116.00     1.74    66.00        1 628599.44
  9562OF           TRAPEZOIDAL          2.00   116.00     1.74    66.00        1 345854.30
  956OF            TRAPEZOIDAL          2.00   116.00     1.74    66.00        1 531067.43
  95OF             TRAPEZOIDAL          2.00   116.00     1.74    66.00        1 856180.33
  974OF            TRAPEZOIDAL          2.00   116.00     1.74    66.00        1 531310.70
  982OF            TRAPEZOIDAL          2.00   116.00     1.74    66.00        1 160958.47
  989OF            TRAPEZOIDAL          2.00   116.00     1.74    66.00        1 1121895.37
  CDT-101          CIRCULAR             0.50     0.20     0.12     0.50        1   198.66
  CDT-103          CIRCULAR             0.50     0.20     0.12     0.50        1   230.55
  CDT-105          CIRCULAR             0.50     0.20     0.12     0.50        1   147.90
  CDT-107          CIRCULAR             0.50     0.20     0.12     0.50        1   283.33
  CDT-109          CIRCULAR             0.50     0.20     0.12     0.50        1   594.70
  CDT-11           CIRCULAR             3.00     7.07     0.75     3.00        1 18621.78
  CDT-111          CIRCULAR             0.50     0.20     0.12     0.50        1   451.04
  CDT-113          CIRCULAR             0.50     0.20     0.12     0.50        1   210.40
  CDT-115          CIRCULAR             0.50     0.20     0.12     0.50        1   397.05
  CDT-117          CIRCULAR             0.50     0.20     0.12     0.50        1   233.48
  CDT-119          CIRCULAR             0.50     0.20     0.12     0.50        1   219.51
  CDT-121          CIRCULAR             0.50     0.20     0.12     0.50        1   378.91
  CDT-123          CIRCULAR             0.50     0.20     0.12     0.50        1   425.90
  CDT-125          CIRCULAR             0.50     0.20     0.12     0.50        1   400.86
  CDT-127          RECT_ROUND           1.00     0.96     0.25     1.00        1  6522.15
  CDT-129          ARCH                 0.50     0.39     0.15     1.00        1  1163.20
  CDT-13           RECT_TRIANGULAR      3.00     2.50     0.35     1.00        1  4550.64
  CDT-131          VERT_ELLIPSE         2.00     1.27     0.31     1.00        1  3576.91
  CDT-133          CIRCULAR             0.50     0.20     0.12     0.50        1   407.44
  CDT-135          CIRCULAR             1.00     0.79     0.25     1.00        1  8190.46
  CDT-137          CIRCULAR             1.50     1.77     0.38     1.50        1  6458.89
  CDT-141          CIRCULAR             1.50     1.77     0.38     1.50        1  5021.50
  CDT-143          CIRCULAR             1.50     1.77     0.38     1.50        1  2743.75
  CDT-147          CIRCULAR             1.50     1.77     0.38     1.50        1  2861.64
  CDT-149          CIRCULAR             1.50     1.77     0.38     1.50        1 10709.78
  CDT-15           CIRCULAR             3.00     7.07     0.75     3.00        1 83139.55
  CDT-151          CIRCULAR             1.50     1.77     0.38     1.50        1  5565.52
  CDT-153          CIRCULAR             1.50     1.77     0.38     1.50        1  8696.34
  CDT-155          CIRCULAR             1.50     1.77     0.38     1.50        1  5988.27
  CDT-157          FORCE_MAIN           1.50     1.77     0.38     1.50        1  7109.41
  CDT-159          HORIZ_ELLIPSE        1.50     2.86     0.46     2.00        1 14570.76
  CDT-161          CIRCULAR             4.00    12.57     1.00     4.00        1 192195.52
  CDT-163          RCV-1                8.26   815.74     1.37   203.56        1 944678.15
  CDT-165          RCV-2                7.27   803.92     1.58   183.79        1 1645303.90
  CDT-167          RCV-3                5.89  1373.02     1.22   395.77        1 1133274.74
  CDT-169          RCV-4                3.66   499.98     0.85   206.50        1 818668.43
  CDT-17           CIRCULAR             0.50     0.20     0.12     0.50        1   539.00
  CDT-171          RCV-3                5.89  1373.02     1.22   395.77        1 2106828.91
  CDT-175          RCV-6                9.63  3739.81     2.35   560.52        1 19974290.33
  CDT-19           CIRCULAR             0.50     0.20     0.12     0.50        1   536.40
  CDT-21           CIRCULAR             0.50     0.20     0.12     0.50        1   710.53
  CDT-23           CIRCULAR             1.00     0.79     0.25     1.00        1  4874.70
  CDT-25           CIRCULAR             0.50     0.20     0.12     0.50        1   446.32
  CDT-27           CIRCULAR             0.50     0.20     0.12     0.50        1   759.15
  CDT-29           CIRCULAR             0.50     0.20     0.12     0.50        1   713.60
  CDT-31           CIRCULAR             1.00     0.79     0.25     1.00        1  1932.72
  CDT-33           CIRCULAR             0.50     0.20     0.12     0.50        1   549.90
  CDT-35           CIRCULAR             0.50     0.20     0.12     0.50        1   745.35
  CDT-37           CIRCULAR             0.50     0.20     0.12     0.50        1   764.23
  CDT-39           CIRCULAR             1.00     0.79     0.25     1.00        1  1481.61
  CDT-43           CIRCULAR             0.50     0.20     0.12     0.50        1   280.94
  CDT-45           CIRCULAR             0.50     0.20     0.12     0.50        1   762.79
  CDT-47           CIRCULAR             0.50     0.20     0.12     0.50        1   509.57
  CDT-49           CIRCULAR             0.67     0.35     0.17     0.67        1   512.17
  CDT-51           CIRCULAR             0.50     0.20     0.12     0.50        1   369.67
  CDT-53           CIRCULAR             0.50     0.20     0.12     0.50        1   392.70
  CDT-55           FORCE_MAIN           0.50     0.20     0.12     0.50        1  1132.54
  CDT-57           CIRCULAR             0.50     0.20     0.12     0.50        1   291.05
  CDT-59           CIRCULAR             0.50     0.20     0.12     0.50        1   231.41
  CDT-61           CIRCULAR             0.50     0.20     0.12     0.50        1   599.23
  CDT-63           CIRCULAR             0.50     0.20     0.12     0.50        1   763.45
  CDT-65           CIRCULAR             0.50     0.20     0.12     0.50        1   362.28
  CDT-67           CIRCULAR             0.67     0.35     0.17     0.67        1  1191.85
  CDT-69           CIRCULAR             0.50     0.20     0.12     0.50        1   556.91
  CDT-71           CIRCULAR             0.50     0.20     0.12     0.50        1   658.60
[...]
  1270                    1.00   0.00  0.08  0.00  0.92  0.00  0.00  0.00  1.00  0.00
  1275                    1.00   0.00  0.01  0.00  0.99  0.00  0.00  0.00  0.99  0.00
  1276                    1.00   0.00  0.00  0.00  0.02  0.98  0.00  0.00  0.00  0.00
  1277                    1.00   0.00  0.00  0.00  0.00  1.00  0.00  0.00  0.00  0.00
  1281                    1.00   0.00  0.00  0.00  0.02  0.98  0.00  0.00  0.00  0.00
  1284                    1.00   0.00  0.00  0.00  1.00  0.00  0.00  0.00  1.00  0.00
  1285                    1.00   0.00  0.00  0.00  1.00  0.00  0.00  0.00  1.00  0.00
  1288                    1.00   0.00  0.00  0.00  1.00  0.00  0.00  0.00  1.00  0.00
  1289                    1.00   0.00  0.00  0.00  1.00  0.00  0.00  0.00  1.00  0.00
  1290                    1.00   0.00  0.27  0.00  0.73  0.00  0.00  0.00  0.73  0.00
  1291                    1.00   0.07  0.00  0.00  0.93  0.00  0.00  0.00  0.00  0.00
  1293                    1.00   0.00  0.42  0.00  0.58  0.00  0.00  0.00  0.64  0.00
  1294                    1.00   0.00  0.35  0.00  0.65  0.00  0.00  0.00  0.83  0.00
  1297                    1.00   0.00  0.94  0.00  0.06  0.00  0.00  0.00  0.44  0.00
  1298                    1.00   0.00  0.94  0.00  0.06  0.00  0.00  0.00  0.44  0.00
  1299                    1.00   0.00  0.00  0.00  1.00  0.00  0.00  0.00  1.00  0.00
  1300                    1.00   0.00  0.00  0.00  1.00  0.00  0.00  0.00  0.78  0.00
  1306                    1.00   0.00  0.40  0.00  0.60  0.00  0.00  0.00  0.85  0.00
  1307                    1.00   0.00  0.00  0.00  0.89  0.11  0.00  0.00  0.03  0.00
  1308                    1.00   0.01  0.00  0.00  0.99  0.00  0.00  0.00  0.20  0.00
  1312                    1.00   0.38  0.62  0.00  0.00  0.00  0.00  0.00  0.00  0.00
  1314                    1.00   0.00  0.38  0.00  0.62  0.00  0.00  0.00  0.84  0.00
  1315                    1.00   0.00  0.00  0.00  1.00  0.00  0.00  0.00  0.92  0.00
  1316                    1.00   0.00  0.00  0.00  1.00  0.00  0.00  0.00  1.00  0.00
  1317                    1.00   0.00  0.00  0.00  1.00  0.00  0.00  0.00  0.00  0.00
  1328                    1.00   0.00  0.18  0.00  0.82  0.00  0.00  0.00  0.85  0.00
  136OF                   1.00   0.00  0.01  0.00  0.99  0.00  0.00  0.00  0.99  0.00
  13OF                    1.00   0.25  0.00  0.00  0.75  0.00  0.00  0.00  0.64  0.00
  140OF                   1.00   0.00  0.00  0.00  1.00  0.00  0.00  0.00  0.03  0.00
  144                     1.00   0.00  0.24  0.00  0.76  0.00  0.00  0.00  0.86  0.00
  144OF                   1.00   0.00  0.24  0.00  0.76  0.00  0.00  0.00  0.86  0.00
  150OF                   1.00   0.00  0.00  0.00  1.00  0.00  0.00  0.00  0.00  0.00
  158                     1.00   0.00  0.02  0.00  0.98  0.00  0.00  0.00  0.98  0.00
  158OF                   1.00   0.00  0.02  0.00  0.98  0.00  0.00  0.00  0.98  0.00
  15OF                    1.00   0.32  0.00  0.00  0.00  0.00  0.00  0.68  0.00  0.00
  163OF                   1.00   0.00  0.01  0.00  0.99  0.00  0.00  0.00  0.96  0.00
  166OF                   1.00   0.00  0.00  0.00  1.00  0.00  0.00  0.00  0.95  0.00
  1791OF                  1.00   0.01  0.43  0.00  0.56  0.00  0.00  0.00  0.82  0.00
  179OF                   1.00   0.00  0.44  0.00  0.56  0.00  0.00  0.00  0.82  0.00
  17OF                    1.00   0.00  0.00  0.00  1.00  0.00  0.00  0.00  0.96  0.00
  183OF                   1.00   0.00  0.00  0.00  1.00  0.00  0.00  0.00  0.00  0.00
  187OF                   1.00   0.00  0.00  0.00  1.00  0.00  0.00  0.00  0.00  0.00
  18OF                    1.00   0.13  0.00  0.00  0.87  0.00  0.00  0.00  0.63  0.00
  191OF                   1.00   0.00  0.00  0.00  1.00  0.00  0.00  0.00  0.92  0.00
  19OF                    1.00   0.00  1.00  0.00  0.00  0.00  0.00  0.00  0.00  0.00
  200                     1.00   0.00  0.00  0.00  1.00  0.00  0.00  0.00  0.00  0.00
  200OF                   1.00   0.00  0.00  0.00  1.00  0.00  0.00  0.00  1.00  0.00
  201OF                   1.00   0.00  0.00  0.00  1.00  0.00  0.00  0.00  1.00  0.00
  205OF                   1.00   0.01  0.42  0.00  0.56  0.00  0.00  0.00  0.82  0.00
  229OF                   1.00   0.00  0.02  0.00  0.98  0.00  0.00  0.00  0.98  0.00
  229OFB                  1.00   0.02  0.00  0.00  0.98  0.00  0.00  0.00  0.00  0.00
  232OF                   1.00   0.00  0.00  0.00  1.00  0.00  0.00  0.00  1.00  0.00
  244OF                   1.00   0.01  0.36  0.00  0.62  0.00  0.00  0.00  0.84  0.00
  257OF                   1.00   0.00  0.38  0.00  0.62  0.00  0.00  0.00  0.84  0.00
  25OF                    1.00   0.00  1.00  0.00  0.00  0.00  0.00  0.00  0.00  0.00
  260OF                   1.00   0.00  0.13  0.00  0.87  0.00  0.00  0.00  0.87  0.00
  267OF                   1.00   0.00  0.00  0.00  1.00  0.00  0.00  0.00  0.98  0.00
  269OF                   1.00   0.00  0.02  0.00  0.98  0.00  0.00  0.00  0.98  0.00
  276OF                   1.00   0.00  0.18  0.00  0.82  0.00  0.00  0.00  0.85  0.00
  281OF                   1.00   0.00  0.42  0.00  0.58  0.00  0.00  0.00  0.64  0.00
  2851OF                  1.00   0.38  0.62  0.00  0.00  0.00  0.00  0.00  0.00  0.00
  285OF                   1.00   0.18  0.82  0.00  0.00  0.00  0.00  0.00  0.00  0.00
  297OF                   1.00   0.00  0.27  0.00  0.73  0.00  0.00  0.00  0.73  0.00
  306OF                   1.00   0.00  0.35  0.00  0.65  0.00  0.00  0.00  0.83  0.00
  3084                    1.00   0.00  0.09  0.00  0.91  0.00  0.00  0.00  0.94  0.00
  3091                    2.87   0.00  0.00  0.00  0.98  0.02  0.00  0.00  1.00  0.00
  31OF                    1.00   0.00  0.00  0.00  0.98  0.02  0.00  0.00  0.95  0.00
  3231OF                  1.00   0.00  1.00  0.00  0.00  0.00  0.00  0.00  0.00  0.00
  323OF                   1.00   0.00  0.35  0.00  0.65  0.00  0.00  0.00  0.83  0.00
  325OF                   1.00   0.01  0.19  0.00  0.81  0.00  0.00  0.00  0.84  0.00
  3289                    1.00   0.00  0.19  0.00  0.81  0.00  0.00  0.00  0.21  0.00
  3293                    1.00   0.01  0.19  0.00  0.79  0.02  0.00  0.00  0.84  0.00
  32OF                    1.00   0.37  0.23  0.00  0.40  0.00  0.00  0.00  0.75  0.00
  3339                    1.00   0.01  0.00  0.00  0.99  0.00  0.00  0.00  0.00  0.00
  3349                    1.00   0.07  0.16  0.00  0.77  0.00  0.00  0.00  0.77  0.00
  3355                    1.00   0.00  0.00  0.00  1.00  0.00  0.00  0.00  0.00  0.00
  3423                    1.00   0.00  0.00  0.00  1.00  0.00  0.00  0.00  0.29  0.00
  3424                    1.00   0.00  0.00  0.00  1.00  0.00  0.00  0.00  1.00  0.00
  348OF                   1.32   0.00  0.00  0.00  1.00  0.00  0.00  0.00  1.00  0.00
  3493                    1.00   0.00  0.00  0.00  0.95  0.05  0.00  0.00  0.96  0.00
  3510                    1.00   0.27  0.00  0.00  0.73  0.00  0.00  0.00  0.00  0.00
  3511                    1.00   0.02  0.00  0.00  0.98  0.00  0.00  0.00  0.00  0.00
  351OF                   1.00   0.00  0.00  0.00  0.99  0.01  0.00  0.00  0.99  0.00
  3521                    1.00   0.00  0.35  0.00  0.65  0.00  0.00  0.00  0.83  0.00
  3527                    1.00   0.00  0.01  0.00  0.99  0.00  0.00  0.00  0.99  0.00
  3629                    1.00   0.00  0.00  0.00  0.99  0.01  0.00  0.00  0.98  0.00
  3656                    1.00   0.00  0.13  0.00  0.87  0.00  0.00  0.00  0.87  0.00
  3682                    1.00   0.00  0.00  0.00  1.00  0.00  0.00  0.00  0.95  0.00
  3690                    1.00   0.00  0.00  0.00  1.00  0.00  0.00  0.00  0.98  0.00
  371OF                   1.00   0.00  0.94  0.00  0.06  0.00  0.00  0.00  0.44  0.00
  3843                    1.00   0.00  0.00  0.00  0.01  0.98  0.00  0.00  0.00  0.00
  384OF                   1.00   0.00  0.00  0.00  1.00  0.00  0.00  0.00  0.98  0.00
  3860                    1.00   0.00  0.01  0.00  0.01  0.98  0.00  0.00  0.02  0.00
  3873                    1.00   0.00  0.00  0.00  0.98  0.02  0.00  0.00  0.99  0.00
  387OF                   1.00   0.00  0.94  0.00  0.06  0.00  0.00  0.00  0.44  0.00
  4030                    1.00   0.01  0.13  0.00  0.33  0.53  0.00  0.00  0.47  0.00
  4043                    1.00   0.01  0.36  0.00  0.62  0.00  0.00  0.00  0.84  0.00
  407OF                   1.00   0.00  0.01  0.00  0.99  0.00  0.00  0.00  0.99  0.00
  4103                    1.00   0.00  0.00  0.00  0.96  0.04  0.00  0.00  0.96  0.00
  4117                    1.00   0.00  1.00  0.00  0.00  0.00  0.00  0.00  0.00  0.00
  4130                    1.00   0.00  1.00  0.00  0.00  0.00  0.00  0.00  0.00  0.00
  4155                    1.00   0.01  0.42  0.00  0.56  0.00  0.00  0.00  0.82  0.00
  4195                    1.00   0.40  0.00  0.00  0.00  0.59  0.00  0.00  0.00  0.00
  4202                    1.00   0.00  0.00  0.00  0.94  0.06  0.00  0.00  0.00  0.00
  4203                    1.00   0.01  0.43  0.00  0.56  0.00  0.00  0.00  0.82  0.00
  421OF                   1.00   0.00  0.00  0.00  1.00  0.00  0.00  0.00  0.00  0.00
  4220                    1.00   0.00  0.00  0.00  0.91  0.09  0.00  0.00  0.95  0.00
  4232                    1.00   0.00  0.01  0.00  0.97  0.02  0.00  0.00  0.96  0.00
  4OF                     1.00   0.25  0.00  0.00  0.75  0.00  0.00  0.00  0.65  0.00
  5002                    1.00   0.00  0.00  0.00  1.00  0.00  0.00  0.00  0.29  0.00
  5003                    1.00   0.00  0.00  0.00  0.98  0.02  0.00  0.00  0.00  1.00
  77OF                    1.00   0.40  0.00  0.00  0.60  0.00  0.00  0.00  0.00  0.00
  7OF                     1.00   0.00  0.00  0.00  1.00  0.00  0.00  0.00  0.84  0.00
  879OF                   1.00   0.13  0.26  0.00  0.61  0.00  0.00  0.00  0.73  0.00
  882OF                   1.00   0.00  0.06  0.00  0.94  0.00  0.00  0.00  0.94  0.00
  893OF                   1.00   0.00  0.01  0.00  0.99  0.00  0.00  0.00  0.99  0.00
  8941OF                  1.00   0.00  0.00  0.00  1.00  0.00  0.00  0.00  0.00  0.00
  894OF                   1.00   0.00  0.00  0.00  0.98  0.02  0.00  0.00  0.83  0.00
  9561OF                  1.00   0.00  0.00  0.00  1.00  0.00  0.00  0.00  1.00  0.00
  9562OF                  1.00   0.00  0.00  0.00  1.00  0.00  0.00  0.00  0.00  0.00
  956OF                   1.00   0.00  0.00  0.00  1.00  0.00  0.00  0.00  1.00  0.00
  95OF                    1.00   0.00  0.00  0.00  0.99  0.01  0.00  0.00  0.96  0.00
  974OF                   1.00   0.00  0.23  0.00  0.77  0.00  0.00  0.00  0.77  0.00
  982OF                   1.00   0.01  0.00  0.00  0.99  0.00  0.00  0.00  0.00  0.00
  989OF                   1.00   0.00  0.09  0.00  0.91  0.00  0.00  0.00  0.94  0.00
  CDT-101                 1.00   0.00  0.00  0.00  1.00  0.00  0.00  0.00  0.70  0.00
  CDT-103                 1.00   0.00  0.00  0.00  1.00  0.00  0.00  0.00  0.95  0.00
  CDT-105                 1.00   0.01  0.00  0.00  0.99  0.00  0.00  0.00  0.00  0.00
  CDT-107                 1.00   0.00  0.03  0.00  0.79  0.18  0.00  0.00  0.01  0.00
  CDT-109                 1.00   0.00  0.00  0.00  0.22  0.78  0.00  0.00  0.43  0.00
  CDT-11                  1.00   0.00  0.00  0.00  1.00  0.00  0.00  0.00  0.99  0.00
  CDT-111                 1.00   0.00  0.42  0.00  0.58  0.00  0.00  0.00  0.86  0.00
  CDT-113                 1.00   0.00  0.00  0.00  1.00  0.00  0.00  0.00  1.00  0.00
  CDT-115                 1.00   0.00  0.00  0.00  1.00  0.00  0.00  0.00  1.00  0.00
  CDT-117                 1.00   0.00  0.00  0.00  1.00  0.00  0.00  0.00  0.79  0.00
  CDT-119                 1.00   0.00  0.01  0.00  0.99  0.00  0.00  0.00  0.00  0.15
  CDT-121                 1.00   0.00  0.00  0.00  0.92  0.08  0.00  0.00  0.48  0.00
  CDT-123                 1.00   0.00  0.00  0.00  0.94  0.06  0.00  0.00  0.97  0.00
  CDT-125                 1.00   0.00  0.00  0.00  0.07  0.92  0.00  0.00  0.00  0.00
  CDT-127                 1.00   0.03  0.23  0.00  0.64  0.10  0.00  0.00  0.87  0.00
  CDT-129                 1.00   0.01  0.55  0.00  0.44  0.00  0.00  0.00  0.86  0.00
  CDT-13                  1.00   0.00  0.00  0.00  0.22  0.78  0.00  0.00  0.00  0.00
  CDT-131                 1.00   0.01  0.14  0.00  0.77  0.08  0.00  0.00  0.84  0.00
  CDT-133                 1.00   0.00  0.00  0.00  0.91  0.09  0.00  0.00  0.00  0.00
  CDT-135                 1.00   0.01  0.00  0.00  0.98  0.00  0.00  0.00  0.98  0.00
  CDT-137                 1.00   0.00  0.00  0.00  1.00  0.00  0.00  0.00  1.00  0.00
  CDT-141                 1.00   0.00  0.00  0.00  1.00  0.00  0.00  0.00  1.00  0.00
  CDT-143                 1.00   0.00  0.00  0.00  1.00  0.00  0.00  0.00  1.00  0.00
  CDT-147                 1.00   0.00  0.40  0.00  0.60  0.00  0.00  0.00  0.98  0.00
  CDT-149                 1.00   0.01  0.40  0.00  0.60  0.00  0.00  0.00  0.97  0.00
  CDT-15                  1.00   0.01  0.00  0.00  0.87  0.12  0.00  0.00  0.93  0.00
  CDT-151                 1.00   0.02  0.98  0.00  0.00  0.00  0.00  0.00  0.00  0.00
  CDT-153                 1.00   1.00  0.00  0.00  0.00  0.00  0.00  0.00  0.00  0.00
  CDT-155                 1.00   0.44  0.00  0.00  0.56  0.00  0.00  0.00  0.00  0.00
  CDT-157                 1.00   0.02  0.42  0.00  0.56  0.00  0.00  0.00  0.96  0.00
  CDT-159                 1.00   0.01  0.43  0.00  0.56  0.00  0.00  0.00  0.99  0.00
  CDT-161                 1.00   0.01  0.00  0.00  0.00  0.99  0.00  0.00  0.00  0.00
  CDT-163                 1.00   0.00  0.00  0.00  1.00  0.00  0.00  0.00  0.92  0.00
  CDT-165                 1.00   0.02  0.00  0.00  0.79  0.19  0.00  0.00  0.69  0.00
  CDT-167                 1.00   0.05  0.00  0.00  0.76  0.19  0.00  0.00  0.00  0.00
  CDT-169                 1.00   0.14  0.12  0.00  0.35  0.38  0.00  0.00  0.12  0.00
  CDT-17                  1.00   0.00  0.00  0.00  0.98  0.02  0.00  0.00  0.97  0.00
  CDT-171                 1.00   0.14  0.00  0.00  0.45  0.41  0.00  0.00  0.00  0.00
  CDT-175                 1.00   0.74  0.00  0.00  0.26  0.00  0.00  0.00  0.00  0.00
  CDT-19                  1.00   0.00  0.00  0.00  0.16  0.84  0.00  0.00  0.41  0.00
  CDT-21                  1.00   0.00  0.01  0.00  0.84  0.15  0.00  0.00  0.99  0.00
  CDT-23                  1.00   0.00  0.00  0.00  0.96  0.04  0.00  0.00  0.97  0.00
  CDT-25                  1.00   0.00  0.00  0.00  0.79  0.21  0.00  0.00  1.00  0.00
  CDT-27                  1.00   0.00  0.00  0.00  0.45  0.55  0.00  0.00  1.00  0.00
  CDT-29                  1.00   0.00  0.00  0.00  0.99  0.01  0.00  0.00  0.99  0.00
  CDT-31                  1.00   0.00  0.00  0.00  0.56  0.44  0.00  0.00  0.00  0.00
  CDT-33                  1.00   0.00  0.00  0.00  0.65  0.35  0.00  0.00  1.00  0.00
  CDT-35                  1.00   0.00  0.00  0.00  0.08  0.92  0.00  0.00  1.00  0.00
  CDT-37                  1.00   0.00  0.00  0.00  0.63  0.37  0.00  0.00  0.99  0.00
  CDT-39                  1.00   0.00  0.00  0.00  1.00  0.00  0.00  0.00  1.00  0.00
  CDT-43                  1.00   0.00  0.00  0.00  0.91  0.09  0.00  0.00  0.58  0.00
  CDT-45                  1.00   0.00  0.00  0.00  0.00  1.00  0.00  0.00  0.99  0.00
  CDT-47                  1.00   0.00  0.00  0.00  0.79  0.20  0.00  0.00  0.97  0.00
  CDT-49                  1.00   0.00  0.01  0.00  0.99  0.00  0.00  0.00  0.99  0.00
  CDT-51                  1.00   0.12  0.38  0.00  0.50  0.00  0.00  0.00  0.87  0.00
  CDT-53                  1.00   0.00  0.12  0.00  0.53  0.35  0.00  0.00  0.11  0.00
  CDT-55                  1.00   0.00  0.00  0.00  0.71  0.29  0.00  0.00  0.99  0.00
  CDT-57                  1.00   0.00  0.00  0.00  1.00  0.00  0.00  0.00  0.98  0.00
  CDT-59                  1.00   0.00  0.00  0.00  1.00  0.00  0.00  0.00  0.35  0.00
  CDT-61                  1.00   0.00  0.00  0.00  0.84  0.16  0.00  0.00  1.00  0.00
  CDT-63                  1.00   0.00  0.00  0.00  0.85  0.15  0.00  0.00  1.00  0.00
  CDT-65                  1.00   0.00  0.00  0.00  1.00  0.00  0.00  0.00  0.99  0.00
  CDT-67                  1.00   0.00  0.00  0.00  0.00  0.99  0.00  0.00  0.00  0.00
  CDT-69                  1.00   0.00  0.00  0.00  0.00  1.00  0.00  0.00  0.00  0.00
  CDT-71                  1.00   0.00  0.00  0.00  0.00  1.00  0.00  0.00  0.99  0.00
  CDT-73                  1.00   0.00  0.00  0.00  0.31  0.69  0.00  0.00  0.38  0.00
  CDT-75                  1.00   0.00  0.00  0.00  0.00  0.99  0.00  0.00  0.43  0.00
  CDT-77                  1.00   0.00  0.00  0.00  1.00  0.00  0.00  0.00  0.99  0.00
  CDT-79                  1.00   0.00  0.00  0.00  1.00  0.00  0.00  0.00  1.00  0.00
  CDT-81                  1.00   0.00  0.00  0.00  1.00  0.00  0.00  0.00  1.00  0.00
  CDT-83                  1.00   0.00  0.00  0.00  0.97  0.03  0.00  0.00  0.95  0.00
  CDT-85                  1.00   0.00  0.00  0.00  1.00  0.00  0.00  0.00  0.99  0.00
  CDT-87                  1.00   0.00  0.00  0.00  1.00  0.00  0.00  0.00  0.62  0.00
  CDT-89                  1.00   0.00  0.01  0.00  0.99  0.00  0.00  0.00  0.99  0.00
  CDT-91                  1.00   0.00  0.00  0.00  0.77  0.23  0.00  0.00  0.00  0.00
  CDT-93                  1.00   0.00  0.01  0.00  0.48  0.51  0.00  0.00  0.67  0.00
  CDT-95                  1.00   0.00  0.00  0.00  0.88  0.12  0.00  0.00  0.97  0.00
  CDT-97                  1.00   0.00  0.00  0.00  1.00  0.00  0.00  0.00  0.99  0.00
  CDT-99                  1.00   0.00  0.00  0.00  1.00  0.00  0.00  0.00  1.00  0.00
  R255                    1.00   0.14  0.09  0.00  0.76  0.00  0.00  0.00  0.86  0.00
  R26                     1.00   0.00  0.87  0.00  0.13  0.00  0.00  0.00  0.78  0.00
  R74                     1.00   0.62  0.24  0.00  0.13  0.00  0.00  0.00  0.24  0.00
  R83                     1.00   0.21  0.03  0.00  0.76  0.00  0.00  0.00  0.09  0.00
  RINFLOW                 1.00   0.00  0.00  0.00  1.00  0.00  0.00  0.00  0.67  0.00
  SWALE                   1.00   1.00  0.00  0.00  0.00  0.00  0.00  0.00  0.00  0.00
  
  
  *************************
  Conduit Surcharge Summary
  *************************
  
  ----------------------------------------------------------------------------
                                                           Hours        Hours 
                         --------- Hours Full --------   Above Full   Capacity
  Conduit                Both Ends  Upstream  Dnstream   Normal Flow   Limited
  ----------------------------------------------------------------------------
  CDT-149                     0.01      0.01      5.06      0.01         0.01
  CDT-23                      0.01      0.01     27.41      0.01         0.01
  
  
  ***************
  Pumping Summary
  ***************
  
  ---------------------------------------------------------------------------------------------------------
                                                  Min       Avg       Max     Total     Power    % Time Off
                        Percent   Number of      Flow      Flow      Flow    Volume     Usage    Pump Curve
  Pump                 Utilized   Start-Ups       LPS       LPS       LPS  10^6 ltr     Kw-hr    Low   High
  ---------------------------------------------------------------------------------------------------------
  PUMP-13                  0.00           0      0.00      0.00      0.00     0.000      0.00    0.0    0.0
  PUMP-15                 42.24        1283      0.00     17.44     17.50     1.326     38.33    0.0   14.8
  PUMP-17                  0.00           0      0.00      0.00      0.00     0.000      0.00    0.0    0.0
  PUMP-19                  0.00           0      0.00      0.00      0.00     0.000      0.00    0.0    0.0
  PUMP1@1115-351           0.00           0      0.00      0.00      0.00     0.000      0.00    0.0    0.0
  

  Analysis begun on:  Mon Mar  9 21:21:04 2026
  Analysis ended on:  Mon Mar  9 21:21:06 2026
  Total elapsed time: 00:00:02