
  EPA STORM WATER MANAGEMENT MODEL - VERSION 5.2 (Build 5.2.4)
  ------------------------------------------------------------

  
  ERROR 207: duplicate ID name 0 at line 28 of [JUNC] section:
  0                858.00     0          0          0          0

  
  ERROR 207: duplicate ID name 0 at line 29 of [JUNC] section:
  0                858.00     0          0          0          0

  
  ERROR 207: duplicate ID name 0 at line 30 of [JUNC] section:
  0                858.00     0          0          0          0

  
  ERROR 207: duplicate ID name 0 at line 31 of [JUNC] section:
  0                857.82     0          0          0          0

  
  ERROR 207: duplicate ID name 0 at line 32 of [JUNC] section:
  0                857.66     0          0          0          0

  
  ERROR 207: duplicate ID name 0 at line 33 of [JUNC] section:
  0                857.62     0          0          0          0

  
  ERROR 207: duplicate ID name 0 at line 34 of [JUNC] section:
  0                857.53     0          0          0          0

  
  ERROR 207: duplicate ID name 0 at line 35 of [JUNC] section:
  0                857.61     0          0          0          0

  
  ERROR 207: duplicate ID name 0 at line 36 of [JUNC] section:
  0                857.73     0          0          0          0

  
  ERROR 207: duplicate ID name 0 at line 37 of [JUNC] section:
  0                857.49     0          0          0          0

  
  ERROR 207: duplicate ID name 0 at line 38 of [JUNC] section:
  0                857.50     0          0          0          0

  
  ERROR 207: duplicate ID name 0 at line 39 of [JUNC] section:
  0                857.65     0          0          0          0

  
  ERROR 207: duplicate ID name 0 at line 40 of [JUNC] section:
  0                857.91     0          0          0          0

  
  ERROR 207: duplicate ID name 0 at line 41 of [JUNC] section:
  0                857.86     0          0          0          0

  
  ERROR 207: duplicate ID name 0 at line 42 of [JUNC] section:
  0                858.07     0          0          0          0

  
  ERROR 207: duplicate ID name 0 at line 43 of [JUNC] section:
  0                857.82     0          0          0          0

  
  ERROR 207: duplicate ID name 0 at line 44 of [JUNC] section:
  0                857.63     0          0          0          0

  
  ERROR 207: duplicate ID name 0 at line 45 of [JUNC] section:
  0                857.80     0          0          0          0

  
  ERROR 207: duplicate ID name 0 at line 46 of [JUNC] section:
  0                857.25     0          0          0          0

  
  ERROR 207: duplicate ID name 0 at line 51 of [STORAGE] section:
  0                859.00     0          0          FUNCTIONAL 0 0          0

  
  ERROR 207: duplicate ID name 0 at line 52 of [STORAGE] section:
  0                858.60     0          0          FUNCTIONAL 0 0          0

  
  ERROR 207: duplicate ID name 0 at line 53 of [STORAGE] section:
  0                858.08     1.00       0          FUNCTIONAL 0 0          0

  
  ERROR 207: duplicate ID name 0 at line 54 of [STORAGE] section:
  0                858.70     1.00       0          FUNCTIONAL 0 0          0

  
  ERROR 207: duplicate ID name 0 at line 55 of [STORAGE] section:
  0                858.80     1.00       0          FUNCTIONAL 0 0          0

  
  ERROR 207: duplicate ID name 0 at line 56 of [STORAGE] section:
  0                858.64     1.00       0          FUNCTIONAL 0 0          0

  
  ERROR 207: duplicate ID name 0 at line 57 of [STORAGE] section:
  0                858.33     0          0          FUNCTIONAL 0 0          0

  
  ERROR 207: duplicate ID name 0 at line 58 of [STORAGE] section:
  0                858.80     0          0          FUNCTIONAL 0 0          0

  
  ERROR 207: duplicate ID name 0 at line 59 of [STORAGE] section:
  0                858.66     0          0          FUNCTIONAL 0 0          0

  
  ERROR 207: duplicate ID name 0 at line 60 of [STORAGE] section:
  0                858.42     0          0          FUNCTIONAL 0 0          0

  
  ERROR 207: duplicate ID name 0 at line 61 of [STORAGE] section:
  0                857.57     0          0          FUNCTIONAL 0 0          0

  
  ERROR 207: duplicate ID name 0 at line 62 of [STORAGE] section:
  0                858.28     0          0          FUNCTIONAL 0 0          0

  
  ERROR 207: duplicate ID name 0 at line 63 of [STORAGE] section:
  0                858.34     0          0          FUNCTIONAL 0 0          0


  Analysis begun on:  Sat Mar  7 21:51:24 2026
  Analysis ended on:  Sat Mar  7 21:51:24 2026
  Total elapsed time: < 1 sec