
  EPA STORM WATER MANAGEMENT MODEL - VERSION 5.2 (Build 5.2.4)
  ------------------------------------------------------------

  
  ERROR 207: duplicate ID name POND at line 54 of [STORAGE] section:
  POND             178.30     0          0          FUNCTIONAL 0 0          0

  
  ERROR 207: duplicate ID name POND at line 55 of [STORAGE] section:
  POND             178.30     0          0          FUNCTIONAL 0 0          0


  Analysis begun on:  Sat Mar  7 21:51:29 2026
  Analysis ended on:  Sat Mar  7 21:51:29 2026
  Total elapsed time: < 1 sec