
  EPA STORM WATER MANAGEMENT MODEL - VERSION 5.2 (Build 5.2.4)
  ------------------------------------------------------------

  
  ERROR 209: undefined object ? at line 34 of [CONDUIT] section:
  385              ?                ?                100.00     0.0240     1012.50    1012.00    0          0

  
  ERROR 209: undefined object ? at line 35 of [CONDUIT] section:
  386              ?                ?                25.00      0.0130     1012.00    1011.50    0          0


  Analysis begun on:  Sat Mar  7 21:51:31 2026
  Analysis ended on:  Sat Mar  7 21:51:31 2026
  Total elapsed time: < 1 sec