
  EPA STORM WATER MANAGEMENT MODEL - VERSION 5.2 (Build 5.2.4)
  ------------------------------------------------------------

  
  ERROR 209: undefined object ? at line 35 of [CONDUIT] section:
  205              ?                ?                100.00     0.0140     29.25      29.25      0          0

  
  ERROR 209: undefined object ? at line 36 of [CONDUIT] section:
  210              ?                ?                100.00     0.0140     29.25      29.30      0          0


  Analysis begun on:  Sat Mar  7 21:51:25 2026
  Analysis ended on:  Sat Mar  7 21:51:25 2026
  Total elapsed time: < 1 sec