
  EPA STORM WATER MANAGEMENT MODEL - VERSION 5.2 (Build 5.2.4)
  ------------------------------------------------------------

  
  ERROR 207: duplicate ID name 0 at line 27 of [JUNC] section:
  0                45.50      0          0          0          0

  
  ERROR 207: duplicate ID name 0 at line 28 of [JUNC] section:
  0                45.80      0          0          0          0

  
  ERROR 207: duplicate ID name 0 at line 29 of [JUNC] section:
  0                45.20      0          0          0          0

  
  ERROR 207: duplicate ID name 0 at line 30 of [JUNC] section:
  0                48.70      0          1.80       0          0

  
  ERROR 207: duplicate ID name 0 at line 31 of [JUNC] section:
  0                48.90      0          0          0          0

  
  ERROR 207: duplicate ID name 0 at line 32 of [JUNC] section:
  0                48.40      0          0.10       0          0

  
  ERROR 207: duplicate ID name 0 at line 33 of [JUNC] section:
  0                48.10      0          0.40       0          0

  
  ERROR 207: duplicate ID name 0 at line 34 of [JUNC] section:
  0                47.80      0          0.70       0          0

  
  ERROR 207: duplicate ID name 0 at line 35 of [JUNC] section:
  0                47.70      0          1.10       0          0

  
  ERROR 207: duplicate ID name 0 at line 36 of [JUNC] section:
  0                49.40      0          0          0          0

  
  ERROR 207: duplicate ID name 0 at line 37 of [JUNC] section:
  0                57.90      0          0          0          0

  
  ERROR 207: duplicate ID name 0 at line 38 of [JUNC] section:
  0                55.40      0          0          0          0

  
  ERROR 207: duplicate ID name 0 at line 39 of [JUNC] section:
  0                48.70      0          0          0          0

  
  ERROR 207: duplicate ID name 228 at line 53 of [CONDUIT] section:
  228              0                0                72.86      0.0250     55.00      53.40      0          0


  Analysis begun on:  Sat Mar  7 21:51:24 2026
  Analysis ended on:  Sat Mar  7 21:51:24 2026
  Total elapsed time: < 1 sec