
  EPA STORM WATER MANAGEMENT MODEL - VERSION 5.2 (Build 5.2.4)
  ------------------------------------------------------------

  
  ERROR 209: undefined object Node_107632 at line 3280 of [CONDUIT] section:
  107632           Node_107632      Node_3281740     248.00     0.0130     55.96      52.90      0          0

  
  ERROR 209: undefined object Node_107633 at line 3281 of [CONDUIT] section:
  107633           Node_107633      Node_32803281    216.00     0.0130     58.25      55.96      0          0

  
  ERROR 209: undefined object Node_207628 at line 3337 of [CONDUIT] section:
  207628           Node_207628      Node_3185735     289.00     0.0130     39.84      39.01      0          0

  
  ERROR 209: undefined object Node_207629 at line 3338 of [CONDUIT] section:
  207629           Node_207629      Node_31863185    246.00     0.0130     41.15      40.34      0          0

  
  ERROR 209: undefined object Node_207630 at line 3339 of [CONDUIT] section:
  207630           Node_207630      Node_31873186    251.00     0.0130     41.94      41.15      0          0

  
  ERROR 209: undefined object Node_207631 at line 3340 of [CONDUIT] section:
  207631           Node_207631      Node_31883187    250.00     0.0130     52.92      41.94      0          0

  
  ERROR 209: undefined object Node_207632 at line 3341 of [CONDUIT] section:
  207632           Node_207632      Node_31893188    248.00     0.0130     55.96      52.92      0          0

  
  ERROR 209: undefined object Node_207633 at line 3342 of [CONDUIT] section:
  207633           Node_207633      Node_31903189    216.00     0.0130     58.25      55.96      0          0

  
  ERROR 209: undefined object Node_207634 at line 3343 of [CONDUIT] section:
  207634           Node_207634      Node_31913190    1008.00    0.0130     68.50      58.25      0          0

  
  ERROR 209: undefined object Node_301001 at line 3353 of [CONDUIT] section:
  301001           Node_301001      Node_30913134    500.00     0.0130     9.10       4.51       0          0

  
  ERROR 209: undefined object Node_301002 at line 3354 of [CONDUIT] section:
  301002           Node_301002      Node_30923091    545.00     0.0130     14.10      9.10       0          0

  
  ERROR 209: undefined object Node_301003 at line 3355 of [CONDUIT] section:
  301003           Node_301003      Node_30933092    214.00     0.0130     29.61      14.10      0          0

  
  ERROR 209: undefined object Node_301004 at line 3356 of [CONDUIT] section:
  301004           Node_301004      Node_30943093    183.00     0.0130     29.92      28.43      0          0

  
  ERROR 209: undefined object Node_301005 at line 3357 of [CONDUIT] section:
  301005           Node_301005      Node_30953094    250.00     0.0130     37.50      29.92      0          0

  
  ERROR 209: undefined object Node_301007 at line 3358 of [CONDUIT] section:
  301007           Node_301007      Node_30963095    805.00     0.0130     66.50      37.50      0          0

  
  ERROR 209: undefined object Node_301008 at line 3359 of [CONDUIT] section:
  301008           Node_301008      Node_30973096    615.00     0.0130     113.50     66.50      0          0

  
  ERROR 209: undefined object Node_301009 at line 3360 of [CONDUIT] section:
  301009           Node_301009      Node_30983097    524.00     0.0130     167.70     113.50     0          0

  
  ERROR 209: undefined object Node_301010 at line 3361 of [CONDUIT] section:
  301010           Node_301010      Node_30993098    2341.00    0.0130     510.90     170.06     0          0

  
  ERROR 209: undefined object Node_301012 at line 3362 of [CONDUIT] section:
  301012           Node_301012      Node_32623092    760.00     0.0130     18.95      14.10      0          0

  
  ERROR 209: undefined object Node_301022 at line 3363 of [CONDUIT] section:
  301022           Node_301022      Node_32633262    263.00     0.0130     25.39      19.25      0          0

  
  ERROR 209: undefined object Node_301104 at line 3364 of [CONDUIT] section:
  301104           Node_301104      Node_31003094    25.00      0.0130     56.50      29.92      0          0

  
  ERROR 209: undefined object Node_301105 at line 3365 of [CONDUIT] section:
  301105           Node_301105      Node_31013095    150.00     0.0130     70.45      37.50      0          0

  
  ERROR 209: undefined object Node_301107 at line 3366 of [CONDUIT] section:
  301107           Node_301107      Node_31023096    189.00     0.0130     122.07     66.50      0          0

  
  ERROR 209: undefined object Node_301108 at line 3367 of [CONDUIT] section:
  301108           Node_301108      Node_31033097    295.00     0.0130     157.40     113.50     0          0

  
  ERROR 209: undefined object Node_301109 at line 3368 of [CONDUIT] section:
  301109           Node_301109      Node_31043098    259.00     0.0130     193.21     170.06     0          0

  
  ERROR 209: undefined object Node_301110 at line 3369 of [CONDUIT] section:
  301110           Node_301110      Node_31053099    165.00     0.0130     555.88     510.90     0          0

  
  ERROR 209: undefined object Node_301112 at line 3370 of [CONDUIT] section:
  301112           Node_301112      Node_32643262    85.00      0.0130     29.30      19.25      0          0

  
  ERROR 209: undefined object Node_301122 at line 3371 of [CONDUIT] section:
  301122           Node_301122      Node_32653263    130.00     0.0130     28.44      26.37      0          0

  
  ERROR 209: undefined object Node_301202 at line 3372 of [CONDUIT] section:
  301202           Node_301202      Node_31063263    60.00      0.0130     29.93      26.37      0          0

  
  ERROR 209: undefined object Node_301204 at line 3373 of [CONDUIT] section:
  301204           Node_301204      Node_31073106    180.00     0.0130     62.50      29.10      0          0

  
  ERROR 209: undefined object Node_301205 at line 3374 of [CONDUIT] section:
  301205           Node_301205      Node_31083101    269.00     0.0130     83.38      71.67      0          0

  
  ERROR 209: undefined object Node_301210 at line 3375 of [CONDUIT] section:
  301210           Node_301210      Node_31093105    255.00     0.0130     593.30     555.88     0          0

  
  ERROR 209: undefined object Node_301212 at line 3376 of [CONDUIT] section:
  301212           Node_301212      Node_32663264    180.00     0.0130     48.91      29.00      0          0

  
  ERROR 209: undefined object Node_301222 at line 3377 of [CONDUIT] section:
  301222           Node_301222      Node_32673265    353.00     0.0130     33.77      27.46      0          0

  
  ERROR 209: undefined object Node_301302 at line 3378 of [CONDUIT] section:
  301302           Node_301302      Node_31103107    210.00     0.0130     70.50      62.50      0          0

  
  ERROR 209: undefined object Node_301305 at line 3379 of [CONDUIT] section:
  301305           Node_301305      Node_31113108    332.00     0.0130     110.99     83.38      0          0

  
  ERROR 209: undefined object Node_301332 at line 3380 of [CONDUIT] section:
  301332           Node_301332      Node_31123110    345.00     0.0130     106.50     70.50      0          0

  
  ERROR 209: undefined object Node_301402 at line 3381 of [CONDUIT] section:
  301402           Node_301402      Node_31133110    290.00     0.0130     79.50      70.50      0          0

  
  ERROR 209: undefined object Node_301405 at line 3382 of [CONDUIT] section:
  301405           Node_301405      Node_31143111    275.00     0.0130     125.93     110.99     0          0

  
  ERROR 209: undefined object Node_301502 at line 3383 of [CONDUIT] section:
  301502           Node_301502      Node_31153113    445.00     0.0130     92.10      79.50      0          0

  
  ERROR 209: undefined object Node_301532 at line 3384 of [CONDUIT] section:
  301532           Node_301532      Node_31163115    205.00     0.0130     132.55     92.10      0          0

  
  ERROR 209: undefined object Node_301552 at line 3385 of [CONDUIT] section:
  301552           Node_301552      Node_31283129    763.00     0.0130     232.91     222.13     0          0

  
  ERROR 209: undefined object Node_301562 at line 3386 of [CONDUIT] section:
  301562           Node_301562      Node_31293118    545.00     0.0130     222.13     216.60     0          0

  
  ERROR 209: undefined object Node_301602 at line 3387 of [CONDUIT] section:
  301602           Node_301602      Node_31173115    765.00     0.0130     188.18     92.10      0          0

  
  ERROR 209: undefined object Node_301632 at line 3388 of [CONDUIT] section:
  301632           Node_301632      Node_31183117    100.00     0.0130     216.60     189.20     0          0

  
  ERROR 209: undefined object Node_301702 at line 3389 of [CONDUIT] section:
  301702           Node_301702      Node_31193117    240.00     0.0130     213.60     189.20     0          0

  
  ERROR 209: undefined object Node_301802 at line 3390 of [CONDUIT] section:
  301802           Node_301802      Node_31203119    265.00     0.0130     241.67     213.60     0          0

  
  ERROR 209: undefined object Node_303003 at line 3391 of [CONDUIT] section:
  303003           Node_303003      Node_31953131    164.00     0.0130     26.92      23.47      0          0

  
  ERROR 209: undefined object Node_303007 at line 3392 of [CONDUIT] section:
  303007           Node_303007      Node_31213096    450.00     0.0130     137.50     66.50      0          0

  
  ERROR 209: undefined object Node_303010 at line 3393 of [CONDUIT] section:
  303010           Node_303010      Node_31223099    71.00      0.0130     516.56     510.90     0          0

  
  ERROR 209: undefined object Node_303210 at line 3394 of [CONDUIT] section:
  303210           Node_303210      Node_31233122    457.00     0.0130     595.00     516.56     0          0

  
  ERROR 209: undefined object Node_303332 at line 3395 of [CONDUIT] section:
  303332           Node_303332      Node_31243110    230.00     0.0130     82.20      70.50      0          0

  
  ERROR 209: undefined object Node_303502 at line 3396 of [CONDUIT] section:
  303502           Node_303502      Node_31253115    225.00     0.0130     127.81     92.10      0          0

  
  ERROR 209: undefined object Node_303532 at line 3397 of [CONDUIT] section:
  303532           Node_303532      Node_31263125    210.00     0.0130     138.00     127.81     0          0

  
  ERROR 209: undefined object Node_303542 at line 3398 of [CONDUIT] section:
  303542           Node_303542      Node_31273126    1593.00    0.0130     212.90     138.00     0          0

  
  ERROR 209: undefined object Node_303552 at line 3399 of [CONDUIT] section:
  303552           Node_303552      Node_31283127    240.00     0.0130     232.91     212.90     0          0

  
  ERROR 209: undefined object Node_303572 at line 3400 of [CONDUIT] section:
  303572           Node_303572      Node_31303126    404.00     0.0130     152.50     138.00     0          0

  
  ERROR 209: undefined object Node_307614 at line 3401 of [CONDUIT] section:
  307614           Node_307614      Node_31312095    1694.00    0.0130     23.47      20.66      0          0

  
  ERROR 209: undefined object Node_307615 at line 3402 of [CONDUIT] section:
  307615           Node_307615      Node_31333131    1078.00    0.0130     25.02      23.47      0          0

  
  ERROR 209: undefined object Node_317614 at line 3403 of [CONDUIT] section:
  317614           Node_317614      Node_31323131    804.00     0.0130     24.62      23.47      0          0

  
  ERROR 209: undefined object Node_350000 at line 3404 of [CONDUIT] section:
  350000           Node_350000      Node_31063133    350.00     0.0079     27.85      25.02      0          0

  
  ERROR 209: undefined object Node_350001 at line 3405 of [CONDUIT] section:
  350001           Node_350001      Node_30933195    350.00     0.0074     27.18      27.17      0          0

  
  ERROR 209: undefined object Node_350002 at line 3406 of [CONDUIT] section:
  350002           Node_350002      Node_32643132    350.00     0.0086     28.33      28.32      0          0

  
  ERROR 209: undefined object Node_350003 at line 3407 of [CONDUIT] section:
  350003           Node_350003      Node_32653133    350.00     0.0086     26.79      25.02      0          0

  
  ERROR 209: undefined object Node_401001 at line 3408 of [CONDUIT] section:
  401001           Node_401001      Node_13941399    1057.00    0.0130     31.63      9.35       0          0

  
  ERROR 209: undefined object Node_401002 at line 3409 of [CONDUIT] section:
  401002           Node_401002      Node_13951394    200.00     0.0130     35.90      31.01      0          0

  
  ERROR 209: undefined object Node_401003 at line 3410 of [CONDUIT] section:
  401003           Node_401003      Node_13961394    225.00     0.0130     36.50      31.01      0          0

  
  ERROR 209: undefined object Node_401004 at line 3411 of [CONDUIT] section:
  401004           Node_401004      Node_13971396    504.00     0.0130     62.00      36.50      0          0

  
  ERROR 209: undefined object Node_403001 at line 3412 of [CONDUIT] section:
  403001           Node_403001      Node_1398814     50.00      0.0130     29.35      27.81      0          0

  
  ERROR 209: undefined object Node_407616 at line 3413 of [CONDUIT] section:
  407616           Node_407616      Node_31843133    541.00     0.0130     26.04      25.02      0          0

  
  ERROR 209: undefined object Node_450000 at line 3415 of [CONDUIT] section:
  450000           Node_450000      Node_13941398    350.00     0.0052     30.35      30.33      0          0

  
  ERROR 209: undefined object Node_501001 at line 3416 of [CONDUIT] section:
  501001           Node_501001      Node_20782100    1158.00    0.0130     13.70      6.00       0          0

  
  ERROR 209: undefined object Node_501002 at line 3417 of [CONDUIT] section:
  501002           Node_501002      Node_20792078    70.00      0.0130     27.66      14.95      0          0

  
  ERROR 209: undefined object Node_501003 at line 3418 of [CONDUIT] section:
  501003           Node_501003      Node_20802078    220.00     0.0130     30.03      14.95      0          0

  
  ERROR 209: undefined object Node_501004 at line 3419 of [CONDUIT] section:
  501004           Node_501004      Node_20812080    259.00     0.0130     47.56      28.78      0          0

  
  ERROR 209: undefined object Node_501005 at line 3420 of [CONDUIT] section:
  501005           Node_501005      Node_20822081    404.00     0.0130     92.00      47.56      0          0

  
  ERROR 209: undefined object Node_501006 at line 3421 of [CONDUIT] section:
  501006           Node_501006      Node_20832082    553.00     0.0130     105.72     92.00      0          0

  
  ERROR 209: undefined object Node_501007 at line 3422 of [CONDUIT] section:
  501007           Node_501007      Node_20842083    220.00     0.0130     107.92     105.72     0          0

  
  ERROR 209: undefined object Node_501008 at line 3423 of [CONDUIT] section:
  501008           Node_501008      Node_20852084    316.00     0.0130     110.58     107.92     0          0

  
  ERROR 209: undefined object Node_501009 at line 3424 of [CONDUIT] section:
  501009           Node_501009      Node_20862085    835.00     0.0130     123.58     113.56     0          0

  
  ERROR 209: undefined object Node_501010 at line 3425 of [CONDUIT] section:
  501010           Node_501010      Node_20872086    1703.00    0.0150     246.50     123.58     0          0

  
  ERROR 209: undefined object Node_501011 at line 3426 of [CONDUIT] section:
  501011           Node_501011      Node_20882087    696.00     0.0150     276.00     246.50     0          0

  
  ERROR 209: undefined object Node_501012 at line 3427 of [CONDUIT] section:
  501012           Node_501012      Node_20892088    839.00     0.0130     357.00     276.00     0          0

  
  ERROR 209: undefined object Node_501013 at line 3428 of [CONDUIT] section:
  501013           Node_501013      Node_20902089    220.00     0.0130     386.90     357.00     0          0

  
  ERROR 209: undefined object Node_501014 at line 3429 of [CONDUIT] section:
  501014           Node_501014      Node_20912090    590.00     0.0130     448.00     386.90     0          0

  
  ERROR 209: undefined object Node_501015 at line 3430 of [CONDUIT] section:
  501015           Node_501015      Node_20922091    474.00     0.0130     526.00     448.00     0          0

  
  ERROR 209: undefined object Node_501016 at line 3431 of [CONDUIT] section:
  501016           Node_501016      Node_20932092    856.00     0.0130     648.00     526.00     0          0

  
  ERROR 209: undefined object Node_501103 at line 3432 of [CONDUIT] section:
  501103           Node_501103      Node_20802097    400.00     0.0130     28.78      26.05      0          0

  
  ERROR 209: undefined object Node_501108 at line 3433 of [CONDUIT] section:
  501108           Node_501108      Node_20942085    3252.00    0.0130     206.40     113.56     0          0

  
  ERROR 209: undefined object Node_503002 at line 3434 of [CONDUIT] section:
  503002           Node_503002      Node_20962095    250.00     0.0130     23.44      20.66      0          0

  
  ERROR 209: undefined object Node_503003 at line 3435 of [CONDUIT] section:
  503003           Node_503003      Node_20972079    400.00     0.0150     26.05      25.66      0          0

  
  ERROR 209: undefined object Node_503103 at line 3436 of [CONDUIT] section:
  503103           Node_503103      Node_20982097    600.00     0.0130     39.60      26.05      0          0

  
  ERROR 209: undefined object Node_503203 at line 3437 of [CONDUIT] section:
  503203           Node_503203      Node_20992097    310.00     0.0150     26.62      26.05      0          0

  
  ERROR 209: undefined object Node_507613 at line 3438 of [CONDUIT] section:
  507613           Node_507613      Node_20951412    2549.00    0.0130     20.66      18.89      0          0

  
  ERROR 209: undefined object Node_550000 at line 3439 of [CONDUIT] section:
  550000           Node_550000      Node_20792096    350.00     0.0099     23.91      23.90      0          0

  
  ERROR 209: undefined object Node_707612 at line 3440 of [CONDUIT] section:
  707612           Node_707612      Node_14121411    1710.00    0.0100     18.89      16.79      0          0

  
  ERROR 209: undefined object Node_701101 at line 3441 of [CONDUIT] section:
  701101           Node_701101      Node_14001429    2390.00    0.0130     79.40      15.78      0          0

  
  ERROR 209: undefined object Node_701103 at line 3442 of [CONDUIT] section:
  701103           Node_701103      Node_14011430    2080.00    0.0130     92.70      19.70      0          0

  
  ERROR 209: undefined object Node_701104 at line 3443 of [CONDUIT] section:
  701104           Node_701104      Node_14021431    1820.00    0.0130     88.30      22.78      0          0

  
  ERROR 209: undefined object Node_701321 at line 3444 of [CONDUIT] section:
  701321           Node_701321      Node_14041424    1022.00    0.0130     11.23      8.55       0          0

  
  Maximum error count exceeded.

  Analysis begun on:  Sat Mar  7 21:51:32 2026
  Analysis ended on:  Sat Mar  7 21:51:32 2026
  Total elapsed time: < 1 sec