
  EPA STORM WATER MANAGEMENT MODEL - VERSION 5.2 (Build 5.2.4)
  ------------------------------------------------------------

  
  ERROR 207: duplicate ID name 7535 at line 3500 of [WEIR] section:
  7535             Node_7535        Node_33143313    TRANSVERSE 53.50      1.840      NO       0        0          YES

  
  ERROR 207: duplicate ID name 7533 at line 3507 of [PUMP] section:
  7533             Node_7533        Node_33193314    PC_7533    ON       0          0         


  Analysis begun on:  Sat Mar  7 21:51:24 2026
  Analysis ended on:  Sat Mar  7 21:51:24 2026
  Total elapsed time: < 1 sec