
  EPA STORM WATER MANAGEMENT MODEL - VERSION 5.2 (Build 5.2.4)
  ------------------------------------------------------------

  
  ERROR 207: duplicate ID name 0 at line 24 of [JUNC] section:
  0                0          0          0          0          0

  
  ERROR 207: duplicate ID name 0 at line 25 of [JUNC] section:
  0                0          0          0          0          0

  
  ERROR 207: duplicate ID name 0 at line 26 of [JUNC] section:
  0                0          0          0          0          0

  
  ERROR 207: duplicate ID name 0 at line 27 of [JUNC] section:
  0                0          0          0          0          0

  
  ERROR 207: duplicate ID name 0 at line 28 of [JUNC] section:
  0                0          0          0          0          0

  
  ERROR 207: duplicate ID name 0 at line 29 of [JUNC] section:
  0                0          0          0          0          0

  
  ERROR 207: duplicate ID name 0 at line 30 of [JUNC] section:
  0                0          0          0          0          0

  
  ERROR 207: duplicate ID name 0 at line 31 of [JUNC] section:
  0                0          0          0          0          0

  
  ERROR 207: duplicate ID name 0 at line 32 of [JUNC] section:
  0                0          0          0          0          0

  
  ERROR 207: duplicate ID name 0 at line 33 of [JUNC] section:
  0                0          0          0          0          0

  
  ERROR 207: duplicate ID name 0 at line 34 of [JUNC] section:
  0                0          0          0          0          0

  
  ERROR 207: duplicate ID name 0 at line 35 of [JUNC] section:
  0                0          0          0          0          0

  
  ERROR 207: duplicate ID name 0 at line 36 of [JUNC] section:
  0                0          0          0          0          0

  
  ERROR 207: duplicate ID name 0 at line 37 of [JUNC] section:
  0                0          0          0          0          0

  
  ERROR 207: duplicate ID name 0 at line 38 of [JUNC] section:
  0                0          0          0          0          0

  
  ERROR 207: duplicate ID name 0 at line 39 of [JUNC] section:
  0                0          0          0          0          0

  
  ERROR 207: duplicate ID name 0 at line 40 of [JUNC] section:
  0                0          0          0          0          0

  
  ERROR 207: duplicate ID name 0 at line 41 of [JUNC] section:
  0                0          0          0          0          0

  
  ERROR 207: duplicate ID name 0 at line 42 of [JUNC] section:
  0                0          0          0          0          0

  
  ERROR 207: duplicate ID name 0 at line 43 of [JUNC] section:
  0                0          0          0          0          0

  
  ERROR 207: duplicate ID name 0 at line 44 of [JUNC] section:
  0                0          0          0          0          0

  
  ERROR 207: duplicate ID name 0 at line 45 of [JUNC] section:
  0                0          0          0          0          0

  
  ERROR 207: duplicate ID name 0 at line 46 of [JUNC] section:
  0                0          0          0          0          0

  
  ERROR 207: duplicate ID name 0 at line 47 of [JUNC] section:
  0                0          0          0          0          0

  
  ERROR 207: duplicate ID name 0 at line 48 of [JUNC] section:
  0                0          0          0          0          0

  
  ERROR 207: duplicate ID name 0 at line 49 of [JUNC] section:
  0                0          0          0          0          0

  
  ERROR 207: duplicate ID name 0 at line 50 of [JUNC] section:
  0                0          0          0          0          0

  
  ERROR 207: duplicate ID name 0 at line 51 of [JUNC] section:
  0                0          0          0          0          0

  
  ERROR 207: duplicate ID name 0 at line 52 of [JUNC] section:
  0                0          0          0          0          0

  
  ERROR 207: duplicate ID name 0 at line 53 of [JUNC] section:
  0                0          0          0          0          0

  
  ERROR 207: duplicate ID name 0 at line 54 of [JUNC] section:
  0                0          0          0          0          0

  
  ERROR 207: duplicate ID name 0 at line 55 of [JUNC] section:
  0                0          0          0          0          0


  Analysis begun on:  Sat Mar  7 21:51:33 2026
  Analysis ended on:  Sat Mar  7 21:51:33 2026
  Total elapsed time: < 1 sec