
  EPA STORM WATER MANAGEMENT MODEL - VERSION 5.2 (Build 5.2.4)
  ------------------------------------------------------------

  
  ERROR 209: undefined object dypump at line 33 of [WEIR] section:
  dypump5          dypump           100              TRANSVERSE 100.00     1.840      NO       0        0          YES

  
  ERROR 211: invalid number  at line 38 of [XSECT] section:
  dypump5          RECT_OPEN    0          50.00      0          0          


  Analysis begun on:  Sat Mar  7 21:51:29 2026
  Analysis ended on:  Sat Mar  7 21:51:29 2026
  Total elapsed time: < 1 sec