
  EPA STORM WATER MANAGEMENT MODEL - VERSION 5.2 (Build 5.2.4)
  ------------------------------------------------------------

  
  ERROR 207: duplicate ID name 0 at line 27 of [JUNC] section:
  0                753.00     0          7.00       0          0

  
  ERROR 207: duplicate ID name 0 at line 28 of [JUNC] section:
  0                746.00     0          6.00       0          0

  
  ERROR 207: duplicate ID name 0 at line 29 of [JUNC] section:
  0                750.00     0          0          0          0

  
  ERROR 207: duplicate ID name 0 at line 30 of [JUNC] section:
  0                750.00     0          0          0          0

  
  ERROR 207: duplicate ID name 0 at line 35 of [STORAGE] section:
  0                757.00     0          0          FUNCTIONAL 0.00 0          0


  Analysis begun on:  Sat Mar  7 21:51:28 2026
  Analysis ended on:  Sat Mar  7 21:51:28 2026
  Total elapsed time: < 1 sec