
  EPA STORM WATER MANAGEMENT MODEL - VERSION 5.2 (Build 5.2.4)
  ------------------------------------------------------------

  
  ERROR 209: undefined object ? at line 33 of [CONDUIT] section:
  203              ?                ?                10.00      0.0150     0          0          0          0

  
  ERROR 209: undefined object ? at line 34 of [CONDUIT] section:
  205              ?                ?                10.00      0.0150     0          0          0          0

  
  ERROR 209: undefined object ? at line 35 of [CONDUIT] section:
  207              ?                ?                10.00      0.0150     0          0          0          0

  
  ERROR 209: undefined object ? at line 36 of [CONDUIT] section:
  209              ?                ?                10.00      0.0150     0          0          0          0

  
  ERROR 209: undefined object ? at line 37 of [CONDUIT] section:
  211              ?                ?                10.00      0.0150     0          0          0          0

  
  ERROR 209: undefined object ? at line 38 of [CONDUIT] section:
  212              ?                ?                10.00      0.0150     0          0          0          0

  
  ERROR 209: undefined object 216.2 at line 39 of [CONDUIT] section:
  216.1            216.2            216.3            10.00      0.0150     0          0          0          0


  Analysis begun on:  Sat Mar  7 21:51:30 2026
  Analysis ended on:  Sat Mar  7 21:51:30 2026
  Total elapsed time: < 1 sec