
  EPA STORM WATER MANAGEMENT MODEL - VERSION 5.2 (Build 5.2.4)
  ------------------------------------------------------------

  
  ERROR 209: undefined object ? at line 817 of [CONDUIT] section:
  Link_315         ?                6020             900.00     0.0110     56.70      51.60      0          0

  
  ERROR 209: undefined object ? at line 824 of [CONDUIT] section:
  Link_322         ?                8035             3950.00    0.0130     42.96      38.20      0          0

  
  ERROR 209: undefined object Node_807 at line 850 of [CONDUIT] section:
  807              Node_807         Node_1006995     510.00     0.0140     92.73      92.22      0          0

  
  ERROR 209: undefined object Node_808 at line 851 of [CONDUIT] section:
  808              Node_808         Node_10031006    1050.00    0.0140     93.78      92.73      0          0

  
  ERROR 209: undefined object Node_809 at line 852 of [CONDUIT] section:
  809              Node_809         Node_10011006    350.00     0.0140     93.09      92.73      0          0

  
  ERROR 209: undefined object Node_812 at line 853 of [CONDUIT] section:
  812              Node_812         Node_10101011    260.00     0.0140     106.76     100.11     0          0

  
  ERROR 209: undefined object Node_815 at line 854 of [CONDUIT] section:
  815              Node_815         Node_1014266     590.00     0.0140     93.70      89.83      0          0

  
  ERROR 209: undefined object Node_816 at line 855 of [CONDUIT] section:
  816              Node_816         Node_1011209     1310.00    0.0140     100.11     87.92      0          0

  
  ERROR 209: undefined object Node_818 at line 856 of [CONDUIT] section:
  818              Node_818         Node_1017307     1080.00    0.0140     96.72      95.00      0          0

  
  ERROR 209: undefined object Node_146 at line 857 of [CONDUIT] section:
  Link_146a        Node_146         Node_10241023    480.00     0.0140     103.70     102.60     0          0

  
  ERROR 209: undefined object Node_146 at line 858 of [CONDUIT] section:
  Link_146b        Node_146         Node_1023292     1405.00    0.0140     102.60     100.91     0          0

  
  ERROR 209: undefined object Node_830 at line 859 of [CONDUIT] section:
  830              Node_830         Node_10291023    275.00     0.0140     103.69     102.78     0          0

  
  ERROR 209: undefined object Node_833 at line 860 of [CONDUIT] section:
  833              Node_833         Node_10311032    350.00     0.0140     103.70     102.82     0          0

  
  ERROR 209: undefined object Node_834 at line 861 of [CONDUIT] section:
  834              Node_834         Node_10321023    290.00     0.0140     102.82     102.60     0          0

  
  ERROR 209: undefined object Node_836 at line 862 of [CONDUIT] section:
  836              Node_836         Node_1035245     500.00     0.0140     100.15     98.50      0          0

  
  ERROR 209: undefined object Node_839 at line 863 of [CONDUIT] section:
  839              Node_839         Node_10371038    300.00     0.0140     103.59     102.19     0          0

  
  ERROR 209: undefined object Node_840 at line 864 of [CONDUIT] section:
  840              Node_840         Node_1038248     410.00     0.0140     102.19     99.75      0          0

  
  ERROR 209: undefined object ? at line 866 of [CONDUIT] section:
  Link_38b         ?                Node_1041246     1290.00    0.0140     101.54     97.60      0          0

  
  ERROR 209: undefined object Node_845 at line 867 of [CONDUIT] section:
  845              Node_845         Node_10441041    1120.00    0.0140     105.27     101.54     0          0

  
  ERROR 209: undefined object Node_848 at line 868 of [CONDUIT] section:
  848              Node_848         Node_10461047    415.00     0.0140     102.11     100.69     0          0

  
  ERROR 209: undefined object Node_849 at line 869 of [CONDUIT] section:
  849              Node_849         Node_1047294     1020.00    0.0140     98.88      97.63      0          0

  
  ERROR 209: undefined object Node_852 at line 870 of [CONDUIT] section:
  852              Node_852         Node_10501051    550.00     0.0140     95.08      94.64      0          0

  
  ERROR 209: undefined object Node_854 at line 871 of [CONDUIT] section:
  854              Node_854         Node_10511053    310.00     0.0140     94.64      93.54      0          0

  
  ERROR 209: undefined object Node_855 at line 872 of [CONDUIT] section:
  855              Node_855         Node_1053308     660.00     0.0140     93.54      92.30      0          0

  
  ERROR 209: undefined object Node_858 at line 873 of [CONDUIT] section:
  858              Node_858         Node_10561057    1310.00    0.0140     95.90      92.77      0          0

  
  ERROR 209: undefined object Node_860 at line 874 of [CONDUIT] section:
  860              Node_860         Node_10571059    530.00     0.0140     92.77      91.44      0          0

  
  ERROR 209: undefined object Node_861 at line 875 of [CONDUIT] section:
  861              Node_861         Node_1059272     620.00     0.0140     91.44      89.89      0          0

  
  ERROR 209: undefined object Node_863 at line 876 of [CONDUIT] section:
  863              Node_863         Node_1062310     860.00     0.0140     96.34      92.21      0          0

  
  ERROR 209: undefined object Node_865 at line 877 of [CONDUIT] section:
  865              Node_865         Node_1064312     785.00     0.0140     102.05     100.00     0          0

  
  ERROR 209: undefined object Node_155 at line 879 of [CONDUIT] section:
  Link_155b        Node_155         Node_1066300     1100.00    0.0140     95.90      95.00      0          0

  
  ERROR 209: undefined object Node_870 at line 880 of [CONDUIT] section:
  870              Node_870         Node_10691066    790.00     0.0140     101.80     98.50      0          0

  
  ERROR 209: undefined object Node_872 at line 881 of [CONDUIT] section:
  872              Node_872         Node_1071298     310.00     0.0140     99.66      99.00      0          0

  
  ERROR 209: undefined object Node_876 at line 882 of [CONDUIT] section:
  876              Node_876         Node_10741075    260.00     0.0140     94.55      94.23      0          0

  
  ERROR 209: undefined object Node_879 at line 883 of [CONDUIT] section:
  879              Node_879         Node_10751078    260.00     0.0140     94.23      93.89      0          0

  
  ERROR 209: undefined object Node_881 at line 884 of [CONDUIT] section:
  881              Node_881         Node_10781080    260.00     0.0140     93.89      93.55      0          0

  
  ERROR 209: undefined object Node_883 at line 885 of [CONDUIT] section:
  883              Node_883         Node_10801082    180.00     0.0140     93.55      93.29      0          0

  
  ERROR 209: undefined object Node_885 at line 886 of [CONDUIT] section:
  885              Node_885         Node_10821084    570.00     0.0140     93.29      92.48      0          0

  
  ERROR 209: undefined object Node_886 at line 887 of [CONDUIT] section:
  886              Node_886         Node_1084272     950.00     0.0140     92.28      89.89      0          0

  
  ERROR 209: undefined object Node_120 at line 888 of [CONDUIT] section:
  Link_120b        Node_120         Node_1091524     664.00     0.0130     88.72      87.70      0          0

  
  ERROR 209: undefined object Node_900 at line 890 of [CONDUIT] section:
  900              Node_900         Node_1099518     270.00     0.0140     87.94      87.67      0          0

  
  ERROR 209: undefined object Node_902 at line 891 of [CONDUIT] section:
  902              Node_902         Node_1101518     240.00     0.0140     85.60      84.90      0          0

  
  ERROR 209: undefined object Node_905 at line 892 of [CONDUIT] section:
  905              Node_905         Node_11031104    650.00     0.0140     87.52      86.22      0          0

  
  ERROR 209: undefined object Node_906 at line 893 of [CONDUIT] section:
  906              Node_906         Node_1104284     35.00      0.0140     86.20      86.16      0          0

  
  ERROR 209: undefined object Node_908 at line 894 of [CONDUIT] section:
  908              Node_908         Node_1107280     1205.00    0.0140     95.03      89.00      0          0

  
  ERROR 209: undefined object Node_916 at line 895 of [CONDUIT] section:
  916              Node_916         Node_11241115    3510.00    0.0140     58.00      52.28      0          0

  
  ERROR 209: undefined object Node_918 at line 896 of [CONDUIT] section:
  918              Node_918         Node_11151117    60.00      0.0140     52.28      51.90      0          0

  
  ERROR 209: undefined object Node_920 at line 897 of [CONDUIT] section:
  920              Node_920         Node_11171119    60.00      0.0140     51.90      51.72      0          0

  
  ERROR 209: undefined object Node_928 at line 899 of [CONDUIT] section:
  928              Node_928         Node_11251127    840.00     0.0110     91.79      91.41      0          0

  
  ERROR 209: undefined object Node_929 at line 900 of [CONDUIT] section:
  929              Node_929         Node_1127343     890.00     0.0110     91.41      91.03      0          0

  
  ERROR 209: undefined object Node_932 at line 901 of [CONDUIT] section:
  932              Node_932         Node_11301131    160.00     0.0140     100.17     98.30      0          0

  
  ERROR 209: undefined object Node_934 at line 902 of [CONDUIT] section:
  934              Node_934         Node_11311133    685.00     0.0140     98.30      95.03      0          0

  
  ERROR 209: undefined object Node_936 at line 903 of [CONDUIT] section:
  936              Node_936         Node_11331135    275.00     0.0140     95.03      94.48      0          0

  
  ERROR 209: undefined object Node_938 at line 904 of [CONDUIT] section:
  938              Node_938         Node_11351137    209.00     0.0140     94.43      94.00      0          0

  
  ERROR 209: undefined object Node_939 at line 905 of [CONDUIT] section:
  939              Node_939         Node_11371125    150.00     0.0140     94.00      91.79      0          0

  
  ERROR 209: undefined object Node_942 at line 906 of [CONDUIT] section:
  942              Node_942         Node_11401141    220.00     0.0140     96.33      95.78      0          0

  
  ERROR 209: undefined object Node_944 at line 907 of [CONDUIT] section:
  944              Node_944         Node_1141328     515.00     0.0140     95.78      94.70      0          0

  
  ERROR 209: undefined object Node_947 at line 908 of [CONDUIT] section:
  947              Node_947         Node_11451146    230.00     0.0140     95.73      95.10      0          0

  
  ERROR 209: undefined object Node_948 at line 909 of [CONDUIT] section:
  948              Node_948         Node_1146330     1050.00    0.0140     95.10      93.90      0          0

  
  ERROR 209: undefined object ? at line 910 of [CONDUIT] section:
  951              ?                50203            710.00     0.0140     86.31      83.97      0          0

  
  ERROR 209: undefined object ? at line 911 of [CONDUIT] section:
  953              ?                50201            790.00     0.0140     83.80      81.79      0          0

  
  ERROR 209: undefined object Node_954 at line 912 of [CONDUIT] section:
  954              Node_954         Node_1152445     155.00     0.0140     81.79      80.36      0          0

  
  ERROR 209: undefined object Node_957 at line 913 of [CONDUIT] section:
  957              Node_957         Node_11551156    300.00     0.0140     98.17      97.56      0          0

  
  ERROR 209: undefined object Node_959 at line 914 of [CONDUIT] section:
  959              Node_959         Node_11561158    180.00     0.0140     97.56      97.03      0          0

  
  ERROR 209: undefined object Node_960 at line 915 of [CONDUIT] section:
  960              Node_960         Node_1158306     1005.00    0.0140     97.03      92.90      0          0

  
  ERROR 209: undefined object Node_963 at line 916 of [CONDUIT] section:
  963              Node_963         Node_11611162    840.00     0.0140     96.79      95.90      0          0

  
  ERROR 209: undefined object Node_964 at line 917 of [CONDUIT] section:
  964              Node_964         Node_1162304     1410.00    0.0140     95.90      94.50      0          0

  
  ERROR 209: undefined object ? at line 918 of [CONDUIT] section:
  967              ?                50104            1200.00    0.0140     101.09     99.04      0          0

  
  ERROR 209: undefined object Node_969 at line 919 of [CONDUIT] section:
  969              Node_969         Node_11661168    650.00     0.0140     98.16      97.51      0          0

  
  ERROR 209: undefined object Node_971 at line 920 of [CONDUIT] section:
  971              Node_971         Node_11681170    530.00     0.0140     97.51      97.51      0          0

  
  ERROR 209: undefined object Node_973 at line 921 of [CONDUIT] section:
  973              Node_973         Node_11701172    330.00     0.0140     97.51      97.51      0          0

  
  ERROR 209: undefined object Node_974 at line 922 of [CONDUIT] section:
  974              Node_974         Node_1172373     1000.00    0.0140     97.51      96.00      0          0

  
  ERROR 209: undefined object ? at line 923 of [CONDUIT] section:
  978              ?                17               1730.00    0.0140     88.60      83.97      0          0

  
  ERROR 209: undefined object Node_981 at line 924 of [CONDUIT] section:
  981              Node_981         Node_11791180    1790.00    0.0140     96.80      89.60      0          0

  
  ERROR 209: undefined object Node_982 at line 925 of [CONDUIT] section:
  982              Node_982         Node_11801176    250.00     0.0140     89.43      88.60      0          0

  
  ERROR 209: undefined object ? at line 927 of [CONDUIT] section:
  985              ?                50302            770.00     0.0140     94.63      93.90      0          0

  
  ERROR 209: undefined object Node_988 at line 928 of [CONDUIT] section:
  988              Node_988         Node_11861187    180.00     0.0140     99.56      98.26      0          0

  
  ERROR 209: undefined object Node_990 at line 929 of [CONDUIT] section:
  990              Node_990         Node_1187372     1640.00    0.0140     98.26      96.42      0          0

  
  ERROR 209: undefined object Node_993 at line 930 of [CONDUIT] section:
  993              Node_993         Node_11921186    530.00     0.0140     101.02     99.56      0          0

  
  ERROR 209: undefined object ? at line 931 of [CONDUIT] section:
  995              ?                5a               390.00     0.0140     99.64      98.92      0          0

  
  ERROR 209: undefined object ? at line 933 of [CONDUIT] section:
  998              ?                50901            380.00     0.0140     90.92      90.30      0          0

  
  ERROR 209: undefined object ? at line 934 of [CONDUIT] section:
  1001             ?                50903            970.00     0.0140     98.59      96.65      0          0

  
  ERROR 209: undefined object ? at line 935 of [CONDUIT] section:
  1003             ?                51001            600.00     0.0140     96.65      95.18      0          0

  
  ERROR 209: undefined object Node_1005 at line 936 of [CONDUIT] section:
  LINK_1005        Node_1005        Node_12021204    340.00     0.0140     95.18      94.50      0          0

  
  ERROR 209: undefined object Node_1009 at line 937 of [CONDUIT] section:
  1009             Node_1009        Node_12041208    150.00     0.0140     94.50      94.20      0          0

  
  ERROR 209: undefined object Node_1012 at line 938 of [CONDUIT] section:
  1012             Node_1012        Node_12081211    630.00     0.0140     94.20      92.44      0          0

  
  ERROR 209: undefined object Node_1016 at line 939 of [CONDUIT] section:
  1016             Node_1016        Node_12131215    330.00     0.0140     79.36      78.54      0          0

  
  ERROR 209: undefined object Node_1018 at line 940 of [CONDUIT] section:
  1018             Node_1018        Node_12151217    335.00     0.0140     78.54      71.97      0          0

  
  ERROR 209: undefined object Node_1020 at line 941 of [CONDUIT] section:
  LINK_1020        Node_1020        Node_12171219    515.00     0.0140     71.97      70.43      0          0

  
  ERROR 209: undefined object Node_1021 at line 942 of [CONDUIT] section:
  1021             Node_1021        Node_1219388     800.00     0.0140     70.43      61.40      0          0

  
  ERROR 209: undefined object ? at line 943 of [CONDUIT] section:
  1023             ?                51402            665.00     0.0140     82.25      79.36      0          0

  
  ERROR 209: undefined object Node_1025 at line 944 of [CONDUIT] section:
  LINK_1025        Node_1025        Node_1224391     755.00     0.0140     65.38      64.80      0          0

  
  ERROR 209: undefined object Node_1028 at line 945 of [CONDUIT] section:
  1028             Node_1028        Node_12261227    435.00     0.0140     59.06      56.00      0          0

  
  ERROR 209: undefined object ? at line 946 of [CONDUIT] section:
  1029             ?                51401            145.00     0.0140     48.90      48.68      0          0

  
  ERROR 209: undefined object ? at line 948 of [CONDUIT] section:
  1032             ?                51502            450.00     0.0140     84.92      83.30      0          0

  
  ERROR 209: undefined object ? at line 949 of [CONDUIT] section:
  LINK_1035        ?                51701            470.00     0.0140     92.99      88.60      0          0

  
  ERROR 209: undefined object Node_1036 at line 950 of [CONDUIT] section:
  1036             Node_1036        Node_12341230    900.00     0.0140     88.60      84.92      0          0

  
  ERROR 209: undefined object Node_1039 at line 951 of [CONDUIT] section:
  1039             Node_1039        Node_12371238    440.00     0.0140     83.00      82.65      0          0

  
  ERROR 209: undefined object Node_1042 at line 952 of [CONDUIT] section:
  1042             Node_1042        Node_12381241    350.00     0.0140     82.65      81.95      0          0

  
  ERROR 209: undefined object Node_1043 at line 953 of [CONDUIT] section:
  1043             Node_1043        Node_1246415     545.00     0.0140     81.31      79.10      0          0

  
  ERROR 209: undefined object Node_1045 at line 954 of [CONDUIT] section:
  LINK_1045        Node_1045        Node_12441237    440.00     0.0140     82.83      83.00      0          0

  
  Maximum error count exceeded.

  Analysis begun on:  Sat Mar  7 21:51:24 2026
  Analysis ended on:  Sat Mar  7 21:51:24 2026
  Total elapsed time: < 1 sec