
  EPA STORM WATER MANAGEMENT MODEL - VERSION 5.2 (Build 5.2.4)
  ------------------------------------------------------------

  
  ERROR 209: undefined object ? at line 34 of [CONDUIT] section:
  203              ?                ?                100.00     0.0140     202.00     201.00     0          0

  
  ERROR 211: invalid number  at line 40 of [XSECT] section:
  203              POWER        5.00       5.00       0          0          1


  Analysis begun on:  Sat Mar  7 21:51:27 2026
  Analysis ended on:  Sat Mar  7 21:51:27 2026
  Total elapsed time: < 1 sec