
  EPA STORM WATER MANAGEMENT MODEL - VERSION 5.2 (Build 5.2.4)
  ------------------------------------------------------------

  
  ERROR 209: undefined object reach2 at line 32 of [CONDUIT] section:
  Reach1           reach2           Bend1            100.00     0          0.05       0          0          0

  
  ERROR 209: undefined object 0 at line 37 of [XSECT] section:
  Reach1           IRREGULAR    0          0          0          0          1


  Analysis begun on:  Sat Mar  7 21:51:25 2026
  Analysis ended on:  Sat Mar  7 21:51:25 2026
  Total elapsed time: < 1 sec