
  EPA STORM WATER MANAGEMENT MODEL - VERSION 5.2 (Build 5.2.4)
  ------------------------------------------------------------

  
  ERROR 209: undefined object Weir at line 69 of [ORIFICE] section:
  Orifice          Weir             310O             SIDE       877.89     0.650      NO       0

  
  ERROR 211: invalid number  at line 88 of [XSECT] section:
  Orifice          RECT_CLOSED  2.50       0          0          0          


  Analysis begun on:  Sat Mar  7 21:51:21 2026
  Analysis ended on:  Sat Mar  7 21:51:21 2026
  Total elapsed time: < 1 sec