
  EPA STORM WATER MANAGEMENT MODEL - VERSION 5.2 (Build 5.2.4)
  ------------------------------------------------------------

  
  ERROR 211: invalid number  at line 241 of [XSECT] section:
  P75223           CIRCULAR     0          0          0          0          1

  
  ERROR 211: invalid number  at line 242 of [XSECT] section:
  P75228           CIRCULAR     0          0          0          0          1

  
  ERROR 211: invalid number  at line 273 of [XSECT] section:
  P75405           CIRCULAR     0          0          0          0          1

  
  ERROR 211: invalid number  at line 274 of [XSECT] section:
  P75411           CIRCULAR     0          0          0          0          1

  
  ERROR 211: invalid number  at line 275 of [XSECT] section:
  P75417           CIRCULAR     0          0          0          0          1


  Analysis begun on:  Sat Mar  7 21:51:29 2026
  Analysis ended on:  Sat Mar  7 21:51:29 2026
  Total elapsed time: < 1 sec