
  EPA STORM WATER MANAGEMENT MODEL - VERSION 5.2 (Build 5.2.4)
  ------------------------------------------------------------

  
  ERROR 207: duplicate ID name 0 at line 27 of [JUNC] section:
  0                23.00      0          4.00       0          0

  
  ERROR 207: duplicate ID name 0 at line 28 of [JUNC] section:
  0                24.00      0          5.00       0          0

  
  ERROR 207: duplicate ID name 0 at line 29 of [JUNC] section:
  0                24.00      0          5.00       0          0

  
  ERROR 207: duplicate ID name 0 at line 30 of [JUNC] section:
  0                23.00      0          5.00       0          0

  
  ERROR 207: duplicate ID name 0 at line 31 of [JUNC] section:
  0                22.70      0          1.30       0          0

  
  ERROR 207: duplicate ID name 0 at line 32 of [JUNC] section:
  0                23.70      0          0          0          0

  
  ERROR 207: duplicate ID name 0 at line 33 of [JUNC] section:
  0                23.20      0          5.00       0          0

  
  ERROR 207: duplicate ID name 0 at line 34 of [JUNC] section:
  0                23.20      0          5.00       0          0

  
  ERROR 207: duplicate ID name 0 at line 35 of [JUNC] section:
  0                23.00      0          4.00       0          0

  
  ERROR 207: duplicate ID name 0 at line 36 of [JUNC] section:
  0                23.20      0          4.00       0          0

  
  ERROR 207: duplicate ID name 0 at line 37 of [JUNC] section:
  0                24.00      0          5.00       0          0

  
  ERROR 207: duplicate ID name 0 at line 38 of [JUNC] section:
  0                24.80      0          4.00       0          0

  
  ERROR 207: duplicate ID name 0 at line 39 of [JUNC] section:
  0                23.50      0          5.00       0          0

  
  ERROR 207: duplicate ID name 0 at line 40 of [JUNC] section:
  0                24.50      0          5.00       0          0

  
  ERROR 207: duplicate ID name 0 at line 41 of [JUNC] section:
  0                23.50      0          5.00       0          0

  
  ERROR 207: duplicate ID name 0 at line 42 of [JUNC] section:
  0                23.20      0          5.00       0          0

  
  ERROR 207: duplicate ID name 0 at line 43 of [JUNC] section:
  0                24.50      0          5.00       0          0

  
  ERROR 207: duplicate ID name 0 at line 44 of [JUNC] section:
  0                25.80      0          0          0          0

  
  ERROR 207: duplicate ID name 0 at line 45 of [JUNC] section:
  0                24.50      0          5.00       0          0

  
  ERROR 207: duplicate ID name 0 at line 46 of [JUNC] section:
  0                25.00      0          7.50       0          0

  
  ERROR 207: duplicate ID name 0 at line 47 of [JUNC] section:
  0                26.00      0          0          0          0

  
  ERROR 207: duplicate ID name 0 at line 48 of [JUNC] section:
  0                23.00      0          5.00       0          0

  
  ERROR 207: duplicate ID name 0 at line 49 of [JUNC] section:
  0                23.00      0          5.00       0          0

  
  ERROR 207: duplicate ID name 0 at line 50 of [JUNC] section:
  0                23.00      0          5.00       0          0

  
  ERROR 207: duplicate ID name 0 at line 51 of [JUNC] section:
  0                23.00      0          5.00       0          0

  
  ERROR 207: duplicate ID name 0 at line 52 of [JUNC] section:
  0                23.20      0          5.00       0          0

  
  ERROR 207: duplicate ID name 0 at line 53 of [JUNC] section:
  0                23.00      0          5.00       0          0

  
  ERROR 207: duplicate ID name 0 at line 54 of [JUNC] section:
  0                23.00      0          4.00       0          0

  
  ERROR 207: duplicate ID name 0 at line 55 of [JUNC] section:
  0                24.00      0          4.00       0          0

  
  ERROR 207: duplicate ID name 0 at line 56 of [JUNC] section:
  0                24.80      0          0          0          0

  
  ERROR 207: duplicate ID name 0 at line 57 of [JUNC] section:
  0                23.50      0          5.50       0          0

  
  ERROR 207: duplicate ID name 0 at line 58 of [JUNC] section:
  0                23.50      0          4.00       0          0

  
  ERROR 207: duplicate ID name 0 at line 59 of [JUNC] section:
  0                23.50      0          6.00       0          0

  
  ERROR 207: duplicate ID name 0 at line 60 of [JUNC] section:
  0                23.50      0          4.00       0          0

  
  ERROR 207: duplicate ID name 0 at line 61 of [JUNC] section:
  0                23.50      0          7.00       0          0

  
  ERROR 207: duplicate ID name 0 at line 62 of [JUNC] section:
  0                23.50      0          4.00       0          0

  
  ERROR 207: duplicate ID name 0 at line 63 of [JUNC] section:
  0                23.50      0          6.00       0          0

  
  ERROR 207: duplicate ID name 0 at line 64 of [JUNC] section:
  0                23.50      0          5.00       0          0

  
  ERROR 207: duplicate ID name 0 at line 65 of [JUNC] section:
  0                24.80      0          0          0          0

  
  ERROR 207: duplicate ID name 0 at line 66 of [JUNC] section:
  0                24.00      0          5.50       0          0

  
  ERROR 207: duplicate ID name 0 at line 67 of [JUNC] section:
  0                23.70      0          3.00       0          0

  
  ERROR 207: duplicate ID name 0 at line 68 of [JUNC] section:
  0                23.00      0          5.00       0          0

  
  ERROR 207: duplicate ID name 0 at line 69 of [JUNC] section:
  0                23.20      0          5.00       0          0

  
  ERROR 207: duplicate ID name 0 at line 70 of [JUNC] section:
  0                23.50      0          5.00       0          0

  
  ERROR 207: duplicate ID name 0 at line 71 of [JUNC] section:
  0                23.50      0          6.00       0          0

  
  ERROR 207: duplicate ID name 0 at line 72 of [JUNC] section:
  0                24.50      0          4.00       0          0

  
  ERROR 207: duplicate ID name 0 at line 73 of [JUNC] section:
  0                25.50      0          7.30       0          0

  
  ERROR 207: duplicate ID name 0 at line 74 of [JUNC] section:
  0                24.80      0          1.30       0          0

  
  ERROR 207: duplicate ID name 0 at line 75 of [JUNC] section:
  0                23.50      0          4.00       0          0

  
  ERROR 207: duplicate ID name 0 at line 76 of [JUNC] section:
  0                25.00      0          0          0          0

  
  ERROR 207: duplicate ID name 0 at line 77 of [JUNC] section:
  0                26.00      0          0          0          0

  
  ERROR 207: duplicate ID name 0 at line 78 of [JUNC] section:
  0                22.70      0          1.30       0          0

  
  ERROR 207: duplicate ID name 0 at line 79 of [JUNC] section:
  0                24.80      0          6.00       0          0

  
  ERROR 207: duplicate ID name 0 at line 80 of [JUNC] section:
  0                24.00      0          4.00       0          0

  
  ERROR 207: duplicate ID name 0 at line 85 of [STORAGE] section:
  0                26.30      0          5.50       FUNCTIONAL 43560.00 0          0

  
  ERROR 207: duplicate ID name 250 at line 127 of [CONDUIT] section:
  250              0                0                0          0          0          0          0          0

  
  ERROR 207: duplicate ID name Weir at line 135 of [WEIR] section:
  Weir             Notch            0                TRANSVERSE 20.35      1.840      NO       0        0          YES

  
  ERROR 207: duplicate ID name Weir at line 139 of [WEIR] section:
  Weir             Notch            0                TRANSVERSE 20.60      1.840      NO       0        0          YES

  
  ERROR 207: duplicate ID name Weir at line 140 of [WEIR] section:
  Weir             Notch            0                TRANSVERSE 21.60      1.840      NO       0        0          YES

  
  ERROR 207: duplicate ID name Weir at line 145 of [WEIR] section:
  Weir             Notch            0                TRANSVERSE 20.35      1.840      NO       0        0          YES

  
  ERROR 207: duplicate ID name weir at line 146 of [WEIR] section:
  weir             notch            0                TRANSVERSE 19.30      1.840      NO       0        0          YES

  
  ERROR 207: duplicate ID name Weir at line 147 of [WEIR] section:
  Weir             0                0                TRANSVERSE 21.30      1.840      NO       0        0          YES

  
  ERROR 207: duplicate ID name Weir at line 148 of [WEIR] section:
  Weir             Notch            0                TRANSVERSE 22.00      1.840      NO       0        0          YES


  Analysis begun on:  Sat Mar  7 21:51:26 2026
  Analysis ended on:  Sat Mar  7 21:51:26 2026
  Total elapsed time: < 1 sec