
  EPA STORM WATER MANAGEMENT MODEL - VERSION 5.2 (Build 5.2.4)
  ------------------------------------------------------------

  
  ERROR 207: duplicate ID name ORIF at line 429 of [ORIFICE] section:
  ORIF             R7               R7-O             SIDE       0          0.650      NO       0

  
  ERROR 207: duplicate ID name ORIF at line 430 of [ORIFICE] section:
  ORIF 1           ORIF 2           R13-O            SIDE       0          0.650      NO       0

  
  ERROR 207: duplicate ID name WEIR at line 443 of [WEIR] section:
  WEIR             R13              R13-W            TRANSVERSE -5.00      1.840      NO       0        0          YES


  Analysis begun on:  Sat Mar  7 21:51:29 2026
  Analysis ended on:  Sat Mar  7 21:51:29 2026
  Total elapsed time: < 1 sec