
  EPA STORM WATER MANAGEMENT MODEL - VERSION 5.2 (Build 5.2.4)
  ------------------------------------------------------------

  
  ERROR 207: duplicate ID name 1000 at line 57 of [STORAGE] section:
  1000             130.00     -15.50     0          FUNCTIONAL 3000.00 0          0

  
  ERROR 207: duplicate ID name 207 at line 58 of [STORAGE] section:
  207              130.00     -15.00     0          FUNCTIONAL 2500.00 0          0

  
  ERROR 207: duplicate ID name 409.1 at line 97 of [PUMP] section:
  409.1            1000             1001             PC_409.1   ON       0          0         


  Analysis begun on:  Sat Mar  7 21:51:26 2026
  Analysis ended on:  Sat Mar  7 21:51:26 2026
  Total elapsed time: < 1 sec