
  EPA STORM WATER MANAGEMENT MODEL - VERSION 5.2 (Build 5.2.4)
  ------------------------------------------------------------

  
  ERROR 207: duplicate ID name pond at line 29 of [JUNC] section:
  pond             45.50      0          0          0          0

  
  ERROR 207: duplicate ID name pond at line 31 of [JUNC] section:
  pond             43.70      0          0          0          0

  
  ERROR 207: duplicate ID name pond at line 33 of [JUNC] section:
  pond             43.20      0          0          0          0

  
  ERROR 207: duplicate ID name pond at line 35 of [JUNC] section:
  pond             41.70      0          0          0          0

  
  ERROR 207: duplicate ID name pond at line 37 of [JUNC] section:
  pond             41.50      0          0          0          0

  
  ERROR 207: duplicate ID name n at line 39 of [JUNC] section:
  n                38.70      0          0          0          0

  
  ERROR 207: duplicate ID name n at line 40 of [JUNC] section:
  n                38.50      0          0          0          0

  
  ERROR 207: duplicate ID name n at line 41 of [JUNC] section:
  n                38.50      0          0          0          0

  
  ERROR 207: duplicate ID name n at line 42 of [JUNC] section:
  n                39.00      0          0          0          0

  
  ERROR 207: duplicate ID name n at line 43 of [JUNC] section:
  n                39.00      0          0          0          0

  
  ERROR 207: duplicate ID name n at line 44 of [JUNC] section:
  n                37.50      0          0          0          0

  
  ERROR 207: duplicate ID name pond at line 45 of [JUNC] section:
  pond             47.50      0          0          0          0

  
  ERROR 207: duplicate ID name pond at line 46 of [JUNC] section:
  pond             45.50      0          0          0          0

  
  ERROR 207: duplicate ID name pond at line 48 of [JUNC] section:
  pond             47.00      0          0          0          0

  
  ERROR 207: duplicate ID name pond at line 49 of [JUNC] section:
  pond             45.00      0          0          0          0

  
  ERROR 207: duplicate ID name pond at line 50 of [JUNC] section:
  pond             43.50      0          0          0          0

  
  ERROR 207: duplicate ID name pond at line 51 of [JUNC] section:
  pond             43.00      0          0          0          0

  
  ERROR 207: duplicate ID name n at line 53 of [JUNC] section:
  n                43.50      0          0          0          0

  
  ERROR 207: duplicate ID name pond at line 54 of [JUNC] section:
  pond             45.00      0          0          0          0

  
  ERROR 207: duplicate ID name n at line 55 of [JUNC] section:
  n                41.00      0          0          0          0

  
  ERROR 207: duplicate ID name pond at line 56 of [JUNC] section:
  pond             42.30      0          0          0          0

  
  ERROR 207: duplicate ID name n at line 57 of [JUNC] section:
  n                41.00      0          0          0          0

  
  ERROR 207: duplicate ID name n at line 58 of [JUNC] section:
  n                39.10      0          0          0          0

  
  ERROR 207: duplicate ID name pond at line 59 of [JUNC] section:
  pond             39.50      0          0          0          0

  
  ERROR 207: duplicate ID name pond at line 60 of [JUNC] section:
  pond             40.50      0          0          0          0

  
  ERROR 207: duplicate ID name pond at line 61 of [JUNC] section:
  pond             39.50      0          0          0          0

  
  ERROR 207: duplicate ID name pond at line 62 of [JUNC] section:
  pond             37.50      0          0          0          0

  
  ERROR 207: duplicate ID name n at line 63 of [JUNC] section:
  n                37.00      0          0          0          0

  
  ERROR 207: duplicate ID name pump at line 120 of [PUMP] section:
  pump IV          chanIV           n                PC_pump IV ON       38.10      38.00     


  Analysis begun on:  Sat Mar  7 21:51:23 2026
  Analysis ended on:  Sat Mar  7 21:51:23 2026
  Total elapsed time: < 1 sec