
  EPA STORM WATER MANAGEMENT MODEL - VERSION 5.2 (Build 5.2.4)
  ------------------------------------------------------------

  
  ERROR 207: duplicate ID name siphon at line 37 of [JUNC] section:
  siphon           0          0          0          0          0

  
  ERROR 207: duplicate ID name sub at line 55 of [JUNC] section:
  sub              0          0          0          0          0

  
  ERROR 207: duplicate ID name sub at line 58 of [JUNC] section:
  sub              0          0          0          0          0

  
  ERROR 207: duplicate ID name sub at line 59 of [JUNC] section:
  sub              0          0          0          0          0

  
  ERROR 207: duplicate ID name sub at line 60 of [JUNC] section:
  sub              0          0          0          0          0

  
  ERROR 207: duplicate ID name sub at line 61 of [JUNC] section:
  sub              0          0          0          0          0

  
  ERROR 207: duplicate ID name sub at line 62 of [JUNC] section:
  sub              0          0          0          0          0

  
  ERROR 207: duplicate ID name sub at line 63 of [JUNC] section:
  sub              0          0          0          0          0

  
  ERROR 207: duplicate ID name sub at line 64 of [JUNC] section:
  sub              0          0          0          0          0

  
  ERROR 207: duplicate ID name sub at line 67 of [JUNC] section:
  sub              0          0          0          0          0

  
  ERROR 207: duplicate ID name CSO at line 70 of [JUNC] section:
  CSO              0          0          0          0          0

  
  ERROR 207: duplicate ID name sub at line 71 of [JUNC] section:
  sub              0          0          0          0          0

  
  ERROR 207: duplicate ID name sub at line 79 of [JUNC] section:
  sub              0          0          0          0          0

  
  ERROR 207: duplicate ID name chamber at line 82 of [JUNC] section:
  chamber          0          0          0          0          0

  
  ERROR 207: duplicate ID name cso at line 83 of [JUNC] section:
  cso              0          0          0          0          0

  
  ERROR 207: duplicate ID name sub at line 84 of [JUNC] section:
  sub              0          0          0          0          0

  
  ERROR 207: duplicate ID name siphon at line 89 of [JUNC] section:
  siphon           0          0          0          0          0

  
  ERROR 207: duplicate ID name siphon at line 90 of [JUNC] section:
  siphon           0          0          0          0          0

  
  ERROR 207: duplicate ID name sub at line 92 of [JUNC] section:
  sub              0          0          0          0          0

  
  ERROR 207: duplicate ID name sub at line 93 of [JUNC] section:
  sub              0          0          0          0          0

  
  ERROR 207: duplicate ID name sub at line 94 of [JUNC] section:
  sub              0          0          0          0          0

  
  ERROR 207: duplicate ID name cso at line 95 of [JUNC] section:
  cso              0          0          0          0          0

  
  ERROR 207: duplicate ID name siphon at line 96 of [JUNC] section:
  siphon           0          0          0          0          0

  
  ERROR 207: duplicate ID name sub at line 97 of [JUNC] section:
  sub              0          0          0          0          0

  
  ERROR 207: duplicate ID name CSO at line 98 of [JUNC] section:
  CSO              0          0          0          0          0


  Analysis begun on:  Sat Mar  7 21:51:25 2026
  Analysis ended on:  Sat Mar  7 21:51:25 2026
  Total elapsed time: < 1 sec