
  EPA STORM WATER MANAGEMENT MODEL - VERSION 5.2 (Build 5.2.4)
  ------------------------------------------------------------

  
  ERROR 209: undefined object ? at line 41 of [CONDUIT] section:
  692              ?                ?                0          0          0          0          0          0

  
  ERROR 209: undefined object Hxw5C2 at line 47 of [WEIR] section:
  Hwy5C1           Hxw5C2           LL-A4            TRANSVERSE 905.00     1.840      NO       0        0          YES

  
  ERROR 211: invalid number  at line 54 of [XSECT] section:
  692              CIRCULAR     0          0          0          0          1

  
  ERROR 211: invalid number  at line 56 of [XSECT] section:
  Hwy5C1           RECT_OPEN    0          12.00      0          0          

  
  ERROR 211: invalid number  at line 57 of [XSECT] section:
  CSAH12w1         RECT_OPEN    0          1.00       0          0          

  
  ERROR 211: invalid number  at line 58 of [XSECT] section:
  CSAH12c          RECT_OPEN    0          1.00       0          0          


  Analysis begun on:  Sat Mar  7 21:51:26 2026
  Analysis ended on:  Sat Mar  7 21:51:26 2026
  Total elapsed time: < 1 sec