
  EPA STORM WATER MANAGEMENT MODEL - VERSION 5.2 (Build 5.2.4)
  ------------------------------------------------------------

  
  ERROR 209: undefined object ? at line 695 of [CONDUIT] section:
  8659             ?                ?                43.72      0.0130     36.80      36.27      0          0

  
  ERROR 209: undefined object ? at line 696 of [CONDUIT] section:
  8660             ?                ?                307.30     0.0130     36.27      35.40      0          0

  
  ERROR 209: undefined object ? at line 745 of [CONDUIT] section:
  9154             ?                ?                333.50     0.0130     37.80      36.00      0          0


  Analysis begun on:  Sat Mar  7 21:51:23 2026
  Analysis ended on:  Sat Mar  7 21:51:23 2026
  Total elapsed time: < 1 sec