
  EPA STORM WATER MANAGEMENT MODEL - VERSION 5.2 (Build 5.2.4)
  ------------------------------------------------------------

  
  ERROR 211: invalid number -3.05 at line 160 of [PUMP] section:
  PS-DD            PS-DDW/W         B1               PC_PS-DD   ON       -3.05      -3.89     

  
  ERROR 209: undefined object LAG at line 162 of [PUMP] section:
  LEAD             LAG              1                PC_LEAD    ON       2.60       2.00      

  
  ERROR 211: invalid number  at line 234 of [XSECT] section:
  SCREEN           RECT_OPEN    0          10.00      0          0          


  Analysis begun on:  Sat Mar  7 21:51:31 2026
  Analysis ended on:  Sat Mar  7 21:51:31 2026
  Total elapsed time: < 1 sec