
  EPA STORM WATER MANAGEMENT MODEL - VERSION 5.2 (Build 5.2.4)
  ------------------------------------------------------------

  
  ERROR 207: duplicate ID name 0 at line 26 of [JUNC] section:
  0                1514.83    0          0          0          0

  
  ERROR 207: duplicate ID name 0 at line 27 of [JUNC] section:
  0                1507.67    0          0          0          0

  
  ERROR 207: duplicate ID name 0 at line 28 of [JUNC] section:
  0                1503.50    0          0          0          0

  
  ERROR 207: duplicate ID name 0 at line 29 of [JUNC] section:
  0                1499.33    0          0          0          0

  
  ERROR 207: duplicate ID name 0 at line 30 of [JUNC] section:
  0                1495.17    0          0          0          0

  
  ERROR 207: duplicate ID name 0 at line 31 of [JUNC] section:
  0                1514.00    0          1.00       0          0

  
  ERROR 207: duplicate ID name 0 at line 32 of [JUNC] section:
  0                1512.00    0          2.00       0          0

  
  ERROR 207: duplicate ID name 0 at line 33 of [JUNC] section:
  0                1508.00    0          2.00       0          0

  
  ERROR 207: duplicate ID name 0 at line 34 of [JUNC] section:
  0                1503.00    0          2.00       0          0

  
  ERROR 207: duplicate ID name 0 at line 35 of [JUNC] section:
  0                1498.00    0          2.00       0          0

  
  ERROR 207: duplicate ID name 0 at line 36 of [JUNC] section:
  0                1491.00    0          0          0          0

  
  ERROR 207: duplicate ID name 201 at line 46 of [CONDUIT] section:
  201              0                0                2000.00    0.0200     1504.00    1505.00    0          0


  Analysis begun on:  Sat Mar  7 21:51:30 2026
  Analysis ended on:  Sat Mar  7 21:51:30 2026
  Total elapsed time: < 1 sec