
  EPA STORM WATER MANAGEMENT MODEL - VERSION 5.2 (Build 5.2.4)
  ------------------------------------------------------------

  
  ERROR 211: invalid number  at line 64 of [XSECT] section:
  Weir             RECT_CLOSED  2.00       0          0          0          

  
  ERROR 211: invalid number  at line 65 of [XSECT] section:
  return           RECT_OPEN    0          10.00      0          0          


  Analysis begun on:  Sat Mar  7 21:51:34 2026
  Analysis ended on:  Sat Mar  7 21:51:34 2026
  Total elapsed time: < 1 sec