
  EPA STORM WATER MANAGEMENT MODEL - VERSION 5.2 (Build 5.2.4)
  ------------------------------------------------------------

  
  ERROR 211: invalid number  at line 938 of [XSECT] section:
  CUL1             RECT_CLOSED  0          0          0          0          

  
  ERROR 211: invalid number  at line 939 of [XSECT] section:
  CUL2             RECT_CLOSED  0          0          0          0          

  
  ERROR 211: invalid number  at line 940 of [XSECT] section:
  CUL3             RECT_CLOSED  0          0          0          0          


  Analysis begun on:  Sat Mar  7 21:51:33 2026
  Analysis ended on:  Sat Mar  7 21:51:33 2026
  Total elapsed time: < 1 sec