
  EPA STORM WATER MANAGEMENT MODEL - VERSION 5.2 (Build 5.2.4)
  ------------------------------------------------------------

  
  ERROR 207: duplicate ID name 0 at line 27 of [JUNC] section:
  0                0          0          0          0          0

  
  ERROR 207: duplicate ID name 0 at line 28 of [JUNC] section:
  0                0          0          0          0          0

  
  ERROR 207: duplicate ID name 0 at line 29 of [JUNC] section:
  0                0          0          0          0          0

  
  ERROR 207: duplicate ID name 0 at line 30 of [JUNC] section:
  0                0          0          0          0          0

  
  ERROR 207: duplicate ID name 0 at line 31 of [JUNC] section:
  0                0          0          0          0          0

  
  ERROR 207: duplicate ID name 0 at line 36 of [STORAGE] section:
  0                23.00      0          0          FUNCTIONAL 18.00 0          0

  
  ERROR 207: duplicate ID name 0 at line 37 of [STORAGE] section:
  0                22.00      0          0          FUNCTIONAL 18.00 0          0

  
  ERROR 207: duplicate ID name 0 at line 38 of [STORAGE] section:
  0                22.00      0          0          FUNCTIONAL 18.00 0          0

  
  ERROR 207: duplicate ID name 0 at line 39 of [STORAGE] section:
  0                21.00      0          0          FUNCTIONAL 100.00 0          0

  
  ERROR 207: duplicate ID name 0 at line 40 of [STORAGE] section:
  0                18.00      0          0          FUNCTIONAL 18.00 0          0

  
  ERROR 207: duplicate ID name 0 at line 41 of [STORAGE] section:
  0                30.00      0          0          FUNCTIONAL 18.00 0          0

  
  ERROR 207: duplicate ID name 0 at line 42 of [STORAGE] section:
  0                20.00      0          0          FUNCTIONAL 18.00 0          0

  
  ERROR 207: duplicate ID name 0 at line 43 of [STORAGE] section:
  0                19.00      0          0          FUNCTIONAL 18.00 0          0

  
  ERROR 207: duplicate ID name 206 at line 57 of [CONDUIT] section:
  206              0                0                800.00     0.0140     20.00      17.00      0          0


  Analysis begun on:  Sat Mar  7 21:51:29 2026
  Analysis ended on:  Sat Mar  7 21:51:29 2026
  Total elapsed time: < 1 sec