
  EPA STORM WATER MANAGEMENT MODEL - VERSION 5.2 (Build 5.2.4)
  ------------------------------------------------------------

  
  ERROR 207: duplicate ID name 0 at line 28 of [JUNC] section:
  0                2.50       0          0          0          0

  
  ERROR 207: duplicate ID name 0 at line 29 of [JUNC] section:
  0                2.50       0          0          0          0

  
  ERROR 207: duplicate ID name 0 at line 30 of [JUNC] section:
  0                2.50       0          0          0          0

  
  ERROR 207: duplicate ID name 0 at line 31 of [JUNC] section:
  0                2.50       0          0          0          0

  
  ERROR 207: duplicate ID name 0 at line 32 of [JUNC] section:
  0                2.50       0          0          0          0

  
  ERROR 207: duplicate ID name 0 at line 33 of [JUNC] section:
  0                4.00       0          0          0          0

  
  ERROR 207: duplicate ID name 0 at line 34 of [JUNC] section:
  0                4.50       0          0          0          0

  
  ERROR 207: duplicate ID name 0 at line 35 of [JUNC] section:
  0                4.50       0          0          0          0

  
  ERROR 207: duplicate ID name 0 at line 36 of [JUNC] section:
  0                2.85       0          0          0          0

  
  ERROR 207: duplicate ID name 0 at line 37 of [JUNC] section:
  0                2.50       0          0          0          0

  
  ERROR 207: duplicate ID name 0 at line 38 of [JUNC] section:
  0                2.75       0          0          0          0

  
  ERROR 207: duplicate ID name 0 at line 39 of [JUNC] section:
  0                3.00       0          0          0          0

  
  ERROR 207: duplicate ID name 0 at line 40 of [JUNC] section:
  0                4.50       0          0          0          0

  
  ERROR 207: duplicate ID name 0 at line 41 of [JUNC] section:
  0                4.50       0          0          0          0

  
  ERROR 207: duplicate ID name 0 at line 42 of [JUNC] section:
  0                4.50       0          0          0          0

  
  ERROR 207: duplicate ID name 0 at line 43 of [JUNC] section:
  0                6.00       0          0          0          0

  
  ERROR 207: duplicate ID name 0 at line 44 of [JUNC] section:
  0                6.00       0          0          0          0

  
  ERROR 207: duplicate ID name 0 at line 45 of [JUNC] section:
  0                6.00       0          0          0          0

  
  ERROR 207: duplicate ID name 0 at line 46 of [JUNC] section:
  0                6.50       0          0          0          0

  
  ERROR 207: duplicate ID name 0 at line 47 of [JUNC] section:
  0                6.50       0          0          0          0

  
  ERROR 207: duplicate ID name 0 at line 48 of [JUNC] section:
  0                6.00       0          0          0          0

  
  ERROR 207: duplicate ID name 0 at line 49 of [JUNC] section:
  0                6.50       0          0          0          0

  
  ERROR 207: duplicate ID name 0 at line 50 of [JUNC] section:
  0                6.00       0          0          0          0

  
  ERROR 207: duplicate ID name 0 at line 51 of [JUNC] section:
  0                6.00       0          0          0          0

  
  ERROR 207: duplicate ID name 0 at line 52 of [JUNC] section:
  0                16.50      0          0          0          0

  
  ERROR 207: duplicate ID name 0 at line 53 of [JUNC] section:
  0                18.00      0          0          0          0

  
  ERROR 207: duplicate ID name 0 at line 54 of [JUNC] section:
  0                33.50      0          0          0          0

  
  ERROR 207: duplicate ID name 0 at line 55 of [JUNC] section:
  0                33.50      0          0          0          0

  
  ERROR 207: duplicate ID name 0 at line 56 of [JUNC] section:
  0                35.50      0          0          0          0

  
  ERROR 207: duplicate ID name 0 at line 57 of [JUNC] section:
  0                35.50      0          0          0          0

  
  ERROR 207: duplicate ID name 0 at line 58 of [JUNC] section:
  0                35.25      0          0          0          0

  
  ERROR 207: duplicate ID name 0 at line 59 of [JUNC] section:
  0                36.50      0          0          0          0

  
  ERROR 207: duplicate ID name 0 at line 60 of [JUNC] section:
  0                38.50      0          0          0          0

  
  ERROR 207: duplicate ID name 0 at line 61 of [JUNC] section:
  0                51.00      0          0          0          0

  
  ERROR 207: duplicate ID name 0 at line 62 of [JUNC] section:
  0                51.00      0          0          0          0

  
  ERROR 207: duplicate ID name 0 at line 63 of [JUNC] section:
  0                49.50      0          0          0          0

  
  ERROR 207: duplicate ID name 0 at line 64 of [JUNC] section:
  0                48.50      0          0          0          0

  
  ERROR 207: duplicate ID name 0 at line 65 of [JUNC] section:
  0                50.00      0          0          0          0

  
  ERROR 207: duplicate ID name 0 at line 66 of [JUNC] section:
  0                50.00      0          0          0          0

  
  ERROR 207: duplicate ID name 0 at line 67 of [JUNC] section:
  0                55.50      0          0          0          0

  
  ERROR 207: duplicate ID name 0 at line 68 of [JUNC] section:
  0                65.00      0          0          0          0

  
  ERROR 207: duplicate ID name 0 at line 69 of [JUNC] section:
  0                60.00      0          0          0          0

  
  ERROR 207: duplicate ID name 0 at line 70 of [JUNC] section:
  0                66.00      0          0          0          0

  
  ERROR 207: duplicate ID name 0 at line 71 of [JUNC] section:
  0                66.00      0          0          0          0

  
  ERROR 207: duplicate ID name 0 at line 72 of [JUNC] section:
  0                66.00      0          0          0          0

  
  ERROR 207: duplicate ID name 0 at line 73 of [JUNC] section:
  0                65.00      0          0          0          0

  
  ERROR 207: duplicate ID name 0 at line 74 of [JUNC] section:
  0                62.50      0          0          0          0

  
  ERROR 207: duplicate ID name 0 at line 75 of [JUNC] section:
  0                62.50      0          0          0          0

  
  ERROR 207: duplicate ID name 0 at line 76 of [JUNC] section:
  0                65.00      0          0          0          0

  
  ERROR 207: duplicate ID name 0 at line 77 of [JUNC] section:
  0                64.50      0          0          0          0

  
  ERROR 207: duplicate ID name 0 at line 78 of [JUNC] section:
  0                62.50      0          0          0          0

  
  ERROR 207: duplicate ID name 0 at line 79 of [JUNC] section:
  0                10.00      0          0          0          0

  
  ERROR 207: duplicate ID name 0 at line 80 of [JUNC] section:
  0                8.00       0          0          0          0

  
  ERROR 207: duplicate ID name 0 at line 81 of [JUNC] section:
  0                8.50       0          0          0          0

  
  ERROR 207: duplicate ID name 0 at line 82 of [JUNC] section:
  0                6.00       0          0          0          0

  
  ERROR 207: duplicate ID name 0 at line 83 of [JUNC] section:
  0                9.00       0          0          0          0

  
  ERROR 207: duplicate ID name 0 at line 84 of [JUNC] section:
  0                9.00       0          0          0          0

  
  ERROR 207: duplicate ID name 0 at line 85 of [JUNC] section:
  0                9.00       0          0          0          0

  
  ERROR 207: duplicate ID name 0 at line 86 of [JUNC] section:
  0                7.00       0          0          0          0

  
  ERROR 207: duplicate ID name 0 at line 87 of [JUNC] section:
  0                7.50       0          0          0          0

  
  ERROR 207: duplicate ID name 0 at line 88 of [JUNC] section:
  0                7.50       0          0          0          0

  
  ERROR 207: duplicate ID name 0 at line 89 of [JUNC] section:
  0                8.00       0          0          0          0

  
  ERROR 207: duplicate ID name 0 at line 90 of [JUNC] section:
  0                9.00       0          0          0          0

  
  ERROR 207: duplicate ID name 0 at line 91 of [JUNC] section:
  0                7.50       0          0          0          0

  
  ERROR 207: duplicate ID name 0 at line 92 of [JUNC] section:
  0                8.00       0          0          0          0

  
  ERROR 207: duplicate ID name 0 at line 93 of [JUNC] section:
  0                13.00      0          0          0          0

  
  ERROR 207: duplicate ID name 0 at line 94 of [JUNC] section:
  0                13.50      0          0          0          0

  
  ERROR 207: duplicate ID name 0 at line 95 of [JUNC] section:
  0                13.50      0          0          0          0

  
  ERROR 207: duplicate ID name 0 at line 96 of [JUNC] section:
  0                13.50      0          0          0          0

  
  ERROR 207: duplicate ID name 0 at line 97 of [JUNC] section:
  0                26.00      0          0          0          0

  
  ERROR 207: duplicate ID name 0 at line 98 of [JUNC] section:
  0                28.00      0          0          0          0

  
  ERROR 207: duplicate ID name 0 at line 99 of [JUNC] section:
  0                28.00      0          0          0          0

  
  ERROR 207: duplicate ID name 0 at line 100 of [JUNC] section:
  0                28.00      0          0          0          0

  
  ERROR 207: duplicate ID name 0 at line 101 of [JUNC] section:
  0                29.20      0          0          0          0

  
  ERROR 207: duplicate ID name 0 at line 102 of [JUNC] section:
  0                28.80      0          0          0          0

  
  ERROR 207: duplicate ID name 0 at line 103 of [JUNC] section:
  0                27.50      0          0          0          0

  
  ERROR 207: duplicate ID name 0 at line 104 of [JUNC] section:
  0                28.00      0          0          0          0

  
  ERROR 207: duplicate ID name 0 at line 105 of [JUNC] section:
  0                28.50      0          0          0          0

  
  ERROR 207: duplicate ID name 0 at line 106 of [JUNC] section:
  0                29.10      0          0          0          0

  
  ERROR 207: duplicate ID name 0 at line 107 of [JUNC] section:
  0                31.00      0          0          0          0

  
  ERROR 207: duplicate ID name 0 at line 108 of [JUNC] section:
  0                35.10      0          0          0          0

  
  ERROR 207: duplicate ID name 0 at line 109 of [JUNC] section:
  0                36.90      0          0          0          0

  
  ERROR 207: duplicate ID name 0 at line 110 of [JUNC] section:
  0                30.00      0          0          0          0

  
  ERROR 207: duplicate ID name 0 at line 111 of [JUNC] section:
  0                30.00      0          0          0          0

  
  ERROR 207: duplicate ID name 0 at line 112 of [JUNC] section:
  0                38.80      0          0          0          0

  
  ERROR 207: duplicate ID name 0 at line 113 of [JUNC] section:
  0                28.90      0          0          0          0

  
  ERROR 207: duplicate ID name 0 at line 114 of [JUNC] section:
  0                28.70      0          0          0          0

  
  ERROR 207: duplicate ID name 0 at line 115 of [JUNC] section:
  0                28.00      0          0          0          0

  
  ERROR 207: duplicate ID name 0 at line 116 of [JUNC] section:
  0                27.60      0          0          0          0

  
  ERROR 207: duplicate ID name 0 at line 117 of [JUNC] section:
  0                27.50      0          0          0          0

  
  ERROR 207: duplicate ID name 0 at line 118 of [JUNC] section:
  0                29.50      0          0          0          0

  
  ERROR 207: duplicate ID name 0 at line 119 of [JUNC] section:
  0                30.10      0          0          0          0

  
  ERROR 207: duplicate ID name 0 at line 120 of [JUNC] section:
  0                30.80      0          0          0          0

  
  ERROR 207: duplicate ID name 0 at line 121 of [JUNC] section:
  0                31.10      0          0          0          0

  
  ERROR 207: duplicate ID name 0 at line 122 of [JUNC] section:
  0                30.50      0          0          0          0

  
  ERROR 207: duplicate ID name 0 at line 123 of [JUNC] section:
  0                31.00      0          0          0          0

  
  ERROR 207: duplicate ID name 0 at line 124 of [JUNC] section:
  0                32.40      0          0          0          0

  
  ERROR 207: duplicate ID name 0 at line 125 of [JUNC] section:
  0                8.00       0          0          0          0

  
  ERROR 207: duplicate ID name 0 at line 126 of [JUNC] section:
  0                7.90       0          0          0          0

  
  ERROR 207: duplicate ID name 0 at line 127 of [JUNC] section:
  0                7.10       0          0          0          0


  Analysis begun on:  Sat Mar  7 21:51:23 2026
  Analysis ended on:  Sat Mar  7 21:51:23 2026
  Total elapsed time: < 1 sec