
  EPA STORM WATER MANAGEMENT MODEL - VERSION 5.2 (Build 5.2.4)
  ------------------------------------------------------------

  
  ERROR 207: duplicate ID name WEIR at line 338 of [WEIR] section:
  WEIR 13          ?                ?                TRANSVERSE 571.72     1.840      NO       0        0          YES

  
  ERROR 207: duplicate ID name WEIR at line 339 of [WEIR] section:
  WEIR 9           ?                ?                TRANSVERSE 585.08     1.840      NO       0        0          YES


  Analysis begun on:  Sat Mar  7 21:51:21 2026
  Analysis ended on:  Sat Mar  7 21:51:21 2026
  Total elapsed time: < 1 sec