
  EPA STORM WATER MANAGEMENT MODEL - VERSION 5.2 (Build 5.2.4)
  ------------------------------------------------------------

  
  ERROR 209: undefined object 1767.2 at line 1227 of [CONDUIT] section:
  1767.1           1767.2           1767.3           47.00      0.0110     784.00     782.00     0          0

  
  ERROR 209: undefined object Node_2552 at line 1307 of [CONDUIT] section:
  2552             Node_2552        Node_1000763     626.18     0          810.00     796.00     0          0

  
  ERROR 209: undefined object 2555.2 at line 1309 of [CONDUIT] section:
  2555.1           2555.2           2555.3           68.00      0.0110     763.00     762.00     0          0

  
  ERROR 209: undefined object Node_2610 at line 1315 of [CONDUIT] section:
  2610             Node_2610        Node_1003768     383.28     0          775.00     774.00     0          0

  
  ERROR 209: undefined object Node_2613 at line 1318 of [CONDUIT] section:
  2613             Node_2613        Node_1005745     434.58     0          762.00     753.00     0          0

  
  ERROR 209: undefined object Node_2614 at line 1319 of [CONDUIT] section:
  2614             Node_2614        Node_10061007    777.41     0          760.00     758.00     0          0

  
  ERROR 209: undefined object 2615.2 at line 1320 of [CONDUIT] section:
  2615.1           2615.2           2615.3           38.00      0.0110     749.20     749.20     0          0

  
  ERROR 209: undefined object 2626.2 at line 1330 of [CONDUIT] section:
  2626.1           2626.2           2626.3           45.00      0.0110     766.50     766.50     0          0

  
  ERROR 209: undefined object 2846.2 at line 1500 of [CONDUIT] section:
  2846.1           2846.2           2846.3           60.00      0.0110     779.00     778.00     0          0

  
  ERROR 209: undefined object Node_2886 at line 1535 of [CONDUIT] section:
  2886             Node_2886        Node_1004258     263.57     0          823.00     820.00     0          0

  
  ERROR 209: undefined object Node_3309 at line 1629 of [CONDUIT] section:
  3309             Node_3309        Node_1001775     612.00     0          772.00     710.00     0          0

  
  ERROR 209: undefined object Node_3310 at line 1630 of [CONDUIT] section:
  3310             Node_3310        Node_1002744     290.00     0          770.00     765.32     0          0

  
  ERROR 209: undefined object Node_3315 at line 1635 of [CONDUIT] section:
  3315             Node_3315        Node_1007769     1015.00    0          758.00     749.20     0          0

  
  ERROR 209: undefined object Node_3316 at line 1636 of [CONDUIT] section:
  3316             Node_3316        Node_10121011    118.00     0.0100     848.05     846.87     0          0

  
  ERROR 209: undefined object Node_3317 at line 1637 of [CONDUIT] section:
  3317             Node_3317        Node_10111010    37.00      0.0150     846.87     846.50     0          0

  
  ERROR 209: undefined object Node_3318 at line 1638 of [CONDUIT] section:
  3318             Node_3318        Node_10101008    239.00     0.0150     846.50     838.11     0          0

  
  ERROR 209: undefined object Node_3319 at line 1639 of [CONDUIT] section:
  3319             Node_3319        Node_10091008    15.00      0.0150     841.50     838.11     0          0

  
  ERROR 209: undefined object Node_3320 at line 1640 of [CONDUIT] section:
  3320             Node_3320        Node_1008958     110.00     0.0150     838.11     834.00     0          0

  
  ERROR 209: undefined object Node_3321 at line 1641 of [CONDUIT] section:
  3321             Node_3321        Node_10131014    114.87     0.0240     844.00     842.85     0          0

  
  ERROR 209: undefined object Node_3322 at line 1642 of [CONDUIT] section:
  3322             Node_3322        Node_10141015    122.50     0.0240     842.85     841.63     0          0

  
  ERROR 209: undefined object Node_3323 at line 1643 of [CONDUIT] section:
  3323             Node_3323        Node_10151016    40.00      0.0150     841.63     841.23     0          0

  
  ERROR 209: undefined object Node_3324 at line 1644 of [CONDUIT] section:
  3324             Node_3324        Node_10161017    31.00      0.0150     841.23     840.92     0          0

  
  ERROR 209: undefined object Node_3325 at line 1645 of [CONDUIT] section:
  3325             Node_3325        Node_10171018    89.50      0.0240     840.92     839.13     0          0

  
  ERROR 209: undefined object Node_3326 at line 1646 of [CONDUIT] section:
  3326             Node_3326        Node_1018959     300.00     0.0240     839.13     832.00     0          0

  
  ERROR 209: undefined object Node_3327 at line 1647 of [CONDUIT] section:
  3327             Node_3327        Node_1019327     15.73      0.0150     847.46     836.62     0          0

  
  ERROR 209: undefined object Node_3328 at line 1648 of [CONDUIT] section:
  3328             Node_3328        Node_10201019    121.56     0.0150     850.09     847.46     0          0

  
  ERROR 209: undefined object Node_3329 at line 1649 of [CONDUIT] section:
  3329             Node_3329        Node_10211020    112.02     0.0150     852.27     850.09     0          0

  
  ERROR 209: undefined object Node_3330 at line 1650 of [CONDUIT] section:
  3330             Node_3330        Node_10221021    347.49     0.0150     857.68     852.27     0          0

  
  ERROR 209: undefined object Node_3331 at line 1651 of [CONDUIT] section:
  3331             Node_3331        Node_10231022    366.99     0.0150     863.68     857.68     0          0

  
  ERROR 209: undefined object 0 at line 2131 of [XSECT] section:
  2550             IRREGULAR    0          0          0          0          1

  
  ERROR 209: undefined object 0 at line 2132 of [XSECT] section:
  2551             IRREGULAR    0          0          0          0          1

  
  ERROR 209: undefined object 0 at line 2133 of [XSECT] section:
  2552             IRREGULAR    0          0          0          0          1

  
  ERROR 209: undefined object 0 at line 2134 of [XSECT] section:
  2553             IRREGULAR    0          0          0          0          1

  
  ERROR 209: undefined object 0 at line 2136 of [XSECT] section:
  2556             IRREGULAR    0          0          0          0          1

  
  ERROR 209: undefined object 0 at line 2137 of [XSECT] section:
  2605             IRREGULAR    0          0          0          0          1

  
  ERROR 209: undefined object 0 at line 2138 of [XSECT] section:
  2606             IRREGULAR    0          0          0          0          1

  
  ERROR 209: undefined object 0 at line 2139 of [XSECT] section:
  2607             IRREGULAR    0          0          0          0          1

  
  ERROR 209: undefined object 0 at line 2140 of [XSECT] section:
  2608             IRREGULAR    0          0          0          0          1

  
  ERROR 209: undefined object 0 at line 2141 of [XSECT] section:
  2610             IRREGULAR    0          0          0          0          1

  
  ERROR 209: undefined object 0 at line 2142 of [XSECT] section:
  2611             IRREGULAR    0          0          0          0          1

  
  ERROR 209: undefined object 0 at line 2143 of [XSECT] section:
  2612             IRREGULAR    0          0          0          0          1

  
  ERROR 209: undefined object 0 at line 2144 of [XSECT] section:
  2613             IRREGULAR    0          0          0          0          1

  
  ERROR 209: undefined object 0 at line 2145 of [XSECT] section:
  2614             IRREGULAR    0          0          0          0          1

  
  ERROR 209: undefined object 0 at line 2147 of [XSECT] section:
  2616             IRREGULAR    0          0          0          0          1

  
  ERROR 209: undefined object 0 at line 2149 of [XSECT] section:
  2618             IRREGULAR    0          0          0          0          1

  
  ERROR 209: undefined object 0 at line 2150 of [XSECT] section:
  2619             IRREGULAR    0          0          0          0          1

  
  ERROR 209: undefined object 0 at line 2151 of [XSECT] section:
  2620             IRREGULAR    0          0          0          0          1

  
  ERROR 209: undefined object 0 at line 2152 of [XSECT] section:
  2621             IRREGULAR    0          0          0          0          1

  
  ERROR 209: undefined object 0 at line 2153 of [XSECT] section:
  2623             IRREGULAR    0          0          0          0          1

  
  ERROR 209: undefined object 0 at line 2154 of [XSECT] section:
  2624             IRREGULAR    0          0          0          0          1

  
  ERROR 209: undefined object 0 at line 2155 of [XSECT] section:
  2625             IRREGULAR    0          0          0          0          1

  
  ERROR 209: undefined object 0 at line 2157 of [XSECT] section:
  2627             IRREGULAR    0          0          0          0          1

  
  ERROR 209: undefined object 0 at line 2158 of [XSECT] section:
  2628             IRREGULAR    0          0          0          0          1

  
  ERROR 209: undefined object 0 at line 2159 of [XSECT] section:
  2629             IRREGULAR    0          0          0          0          1

  
  ERROR 209: undefined object 0 at line 2160 of [XSECT] section:
  2630             IRREGULAR    0          0          0          0          1

  
  ERROR 209: undefined object 0 at line 2161 of [XSECT] section:
  2631             IRREGULAR    0          0          0          0          1

  
  ERROR 209: undefined object 0 at line 2162 of [XSECT] section:
  2633             IRREGULAR    0          0          0          0          1

  
  ERROR 209: undefined object 0 at line 2163 of [XSECT] section:
  2634             IRREGULAR    0          0          0          0          1

  
  ERROR 209: undefined object 0 at line 2164 of [XSECT] section:
  2637             IRREGULAR    0          0          0          0          1

  
  ERROR 209: undefined object 0 at line 2165 of [XSECT] section:
  2639             IRREGULAR    0          0          0          0          1

  
  ERROR 209: undefined object 0 at line 2166 of [XSECT] section:
  2640             IRREGULAR    0          0          0          0          1

  
  ERROR 209: undefined object 0 at line 2167 of [XSECT] section:
  2641             IRREGULAR    0          0          0          0          1

  
  ERROR 209: undefined object 0 at line 2168 of [XSECT] section:
  2642             IRREGULAR    0          0          0          0          1

  
  ERROR 209: undefined object 0 at line 2169 of [XSECT] section:
  2643             IRREGULAR    0          0          0          0          1

  
  ERROR 209: undefined object 0 at line 2170 of [XSECT] section:
  2644             IRREGULAR    0          0          0          0          1

  
  ERROR 209: undefined object 0 at line 2171 of [XSECT] section:
  2645             IRREGULAR    0          0          0          0          1

  
  ERROR 209: undefined object 0 at line 2172 of [XSECT] section:
  2646             IRREGULAR    0          0          0          0          1

  
  ERROR 209: undefined object 0 at line 2173 of [XSECT] section:
  2647             IRREGULAR    0          0          0          0          1

  
  ERROR 209: undefined object 0 at line 2174 of [XSECT] section:
  2648             IRREGULAR    0          0          0          0          1

  
  ERROR 209: undefined object 0 at line 2175 of [XSECT] section:
  2649             IRREGULAR    0          0          0          0          1

  
  ERROR 209: undefined object 0 at line 2176 of [XSECT] section:
  2650             IRREGULAR    0          0          0          0          1

  
  ERROR 209: undefined object 0 at line 2177 of [XSECT] section:
  2651             IRREGULAR    0          0          0          0          1

  
  ERROR 209: undefined object 0 at line 2178 of [XSECT] section:
  2652             IRREGULAR    0          0          0          0          1

  
  ERROR 209: undefined object 0 at line 2179 of [XSECT] section:
  2654             IRREGULAR    0          0          0          0          1

  
  ERROR 209: undefined object 0 at line 2180 of [XSECT] section:
  2655             IRREGULAR    0          0          0          0          1

  
  ERROR 209: undefined object 0 at line 2181 of [XSECT] section:
  2656             IRREGULAR    0          0          0          0          1

  
  ERROR 209: undefined object 0 at line 2183 of [XSECT] section:
  2658             IRREGULAR    0          0          0          0          1

  
  ERROR 209: undefined object 0 at line 2184 of [XSECT] section:
  2659             IRREGULAR    0          0          0          0          1

  
  ERROR 209: undefined object 0 at line 2185 of [XSECT] section:
  2660             IRREGULAR    0          0          0          0          1

  
  ERROR 209: undefined object 0 at line 2186 of [XSECT] section:
  2665             IRREGULAR    0          0          0          0          1

  
  ERROR 209: undefined object 0 at line 2187 of [XSECT] section:
  2666             IRREGULAR    0          0          0          0          1

  
  ERROR 209: undefined object 0 at line 2189 of [XSECT] section:
  2670             IRREGULAR    0          0          0          0          1

  
  ERROR 209: undefined object 0 at line 2190 of [XSECT] section:
  2672             IRREGULAR    0          0          0          0          1

  
  ERROR 209: undefined object 0 at line 2191 of [XSECT] section:
  2673             IRREGULAR    0          0          0          0          1

  
  ERROR 209: undefined object 0 at line 2192 of [XSECT] section:
  2674             IRREGULAR    0          0          0          0          1

  
  ERROR 209: undefined object 0 at line 2193 of [XSECT] section:
  2675             IRREGULAR    0          0          0          0          1

  
  ERROR 209: undefined object 0 at line 2194 of [XSECT] section:
  2676             IRREGULAR    0          0          0          0          1

  
  ERROR 209: undefined object 0 at line 2195 of [XSECT] section:
  2677             IRREGULAR    0          0          0          0          1

  
  ERROR 209: undefined object 0 at line 2196 of [XSECT] section:
  2678             IRREGULAR    0          0          0          0          1

  
  ERROR 209: undefined object 0 at line 2197 of [XSECT] section:
  2679             IRREGULAR    0          0          0          0          1

  
  ERROR 209: undefined object 0 at line 2199 of [XSECT] section:
  2681             IRREGULAR    0          0          0          0          1

  
  ERROR 209: undefined object 0 at line 2200 of [XSECT] section:
  2682             IRREGULAR    0          0          0          0          1

  
  ERROR 209: undefined object 0 at line 2201 of [XSECT] section:
  2683             IRREGULAR    0          0          0          0          1

  
  ERROR 209: undefined object 0 at line 2202 of [XSECT] section:
  2684             IRREGULAR    0          0          0          0          1

  
  ERROR 209: undefined object 0 at line 2203 of [XSECT] section:
  2685             IRREGULAR    0          0          0          0          1

  
  ERROR 209: undefined object 0 at line 2204 of [XSECT] section:
  2686             IRREGULAR    0          0          0          0          1

  
  ERROR 209: undefined object 0 at line 2205 of [XSECT] section:
  2687             IRREGULAR    0          0          0          0          1

  
  ERROR 209: undefined object 0 at line 2206 of [XSECT] section:
  2692             IRREGULAR    0          0          0          0          1

  
  ERROR 209: undefined object 0 at line 2207 of [XSECT] section:
  2693             IRREGULAR    0          0          0          0          1

  
  ERROR 209: undefined object 0 at line 2208 of [XSECT] section:
  2695             IRREGULAR    0          0          0          0          1

  
  Maximum error count exceeded.

  Analysis begun on:  Sat Mar  7 21:51:26 2026
  Analysis ended on:  Sat Mar  7 21:51:26 2026
  Total elapsed time: < 1 sec