
  EPA STORM WATER MANAGEMENT MODEL - VERSION 5.2 (Build 5.2.4)
  ------------------------------------------------------------

  
  ERROR 209: undefined object 72628-o at line 212 of [CONDUIT] section:
  72628            72628-o          72628            42.94      0.0130     690.52     690.27     0          0

  
  ERROR 209: undefined object 21659-o at line 213 of [CONDUIT] section:
  21659            21659-o          21659            35.09      0.0130     689.85     689.43     0          0

  
  ERROR 209: undefined object 21657-o at line 214 of [CONDUIT] section:
  21657            21657-o          21657            29.00      0.0130     689.43     688.90     0          0

  
  ERROR 209: undefined object 726852-o at line 218 of [CONDUIT] section:
  726852           726852-o         726852           67.00      0.0120     678.09     677.58     0          0

  
  ERROR 209: undefined object 726854-o at line 219 of [CONDUIT] section:
  726854           726854-o         726854           97.00      0.0130     677.58     676.39     0          0

  
  ERROR 209: undefined object 726856-o at line 220 of [CONDUIT] section:
  726856           726856-o         726856           39.00      0.0130     676.29     675.80     0          0

  
  ERROR 209: undefined object 72640-o at line 221 of [CONDUIT] section:
  72640            72640-o          72640            28.00      0.0130     675.59     675.02     0          0

  
  ERROR 209: undefined object 72726-o at line 224 of [CONDUIT] section:
  72726            72726-o          72726            38.00      0.0130     666.13     665.89     0          0

  
  ERROR 209: undefined object 72732-o at line 226 of [CONDUIT] section:
  72732            72732-o          72732            74.00      0.0130     663.05     661.67     0          0

  
  ERROR 209: undefined object 72882-o at line 227 of [CONDUIT] section:
  72882            72882-o          72882            67.00      0.0130     658.39     656.91     0          0

  
  ERROR 209: undefined object 72926-o at line 231 of [CONDUIT] section:
  72926            72926-o          72926            49.00      0.0250     645.97     645.35     0          0

  
  ERROR 209: undefined object 73038-o at line 235 of [CONDUIT] section:
  73038            73038-o          73038            49.00      0.0250     641.62     640.97     0          0

  
  ERROR 209: undefined object 60106 at line 236 of [CONDUIT] section:
  60106            60106            60099            170.00     0          638.64     633.80     0          0

  
  ERROR 209: undefined object 73267-2 at line 238 of [CONDUIT] section:
  73267-2          73267-2          188              170.00     0          631.74     629.43     0          0

  
  ERROR 209: undefined object 23294-o at line 240 of [CONDUIT] section:
  23294            23294-o          23294            140.00     0.0130     644.98     642.86     0          0

  
  ERROR 209: undefined object 73332-o at line 241 of [CONDUIT] section:
  73332            73332-o          73332-2          62.00      0.0130     642.50     641.19     0          0

  
  ERROR 209: undefined object 20105-o at line 242 of [CONDUIT] section:
  20105            20105-o          20105-2          90.00      0.0130     640.91     639.02     0          0

  
  ERROR 209: undefined object 32442-o at line 243 of [CONDUIT] section:
  32442            32442-o          32442            166.00     0.0130     639.02     635.82     0          0

  
  ERROR 209: undefined object 17456-o at line 245 of [CONDUIT] section:
  17456            17456-o          17456            37.00      0.0130     667.84     666.60     0          0

  
  ERROR 209: undefined object 17454-o at line 246 of [CONDUIT] section:
  17454            17454-o          17454            145.00     0.0130     666.55     658.90     0          0

  
  ERROR 209: undefined object 16916-o at line 248 of [CONDUIT] section:
  16916            16916-o          17835            20.00      0.0130     646.80     646.49     0          0

  
  ERROR 209: undefined object 17835-o at line 249 of [CONDUIT] section:
  17835            17835-o          17835            46.00      0.0130     645.52     644.69     0          0

  
  ERROR 209: undefined object 73282-o at line 253 of [CONDUIT] section:
  73282            73282-o          73282            277.00     0.0130     644.13     641.76     0          0

  
  ERROR 209: undefined object 20117-o at line 254 of [CONDUIT] section:
  20117            20117-o          20117            34.00      0.0130     641.60     641.40     0          0

  
  ERROR 209: undefined object 20109-o at line 255 of [CONDUIT] section:
  20109            20109-o          20109            169.00     0.0130     641.40     641.15     0          0

  
  ERROR 209: undefined object 73308-o at line 256 of [CONDUIT] section:
  73308            73308-o          73308            181.00     0.0130     641.10     635.82     0          0

  
  ERROR 209: undefined object 20160-o at line 257 of [CONDUIT] section:
  20160            20160-o          20160            234.00     0.0130     659.85     650.93     0          0

  
  ERROR 209: undefined object 20144-o at line 258 of [CONDUIT] section:
  20144            20144-o          20144            170.00     0.0130     649.20     647.80     0          0

  
  ERROR 209: undefined object 20138-o at line 259 of [CONDUIT] section:
  20138            20138-o          20138            176.00     0.0130     646.49     642.91     0          0

  
  ERROR 209: undefined object 20134-o at line 260 of [CONDUIT] section:
  20131            20134-o          20131-o          51.00      0.0130     651.31     650.49     0          0

  
  ERROR 209: undefined object 6599-o at line 262 of [CONDUIT] section:
  6599             6599-o           6599             106.97     0.0120     0          0          0          0

  
  ERROR 209: undefined object 23159-o at line 263 of [CONDUIT] section:
  23159            23159-o          23159            25.00      0.0130     692.25     692.36     0          0

  
  ERROR 209: undefined object 23163-o at line 264 of [CONDUIT] section:
  23163            23163-o          23163            155.00     0.0130     692.10     688.92     0          0

  
  ERROR 209: undefined object 22932-o at line 265 of [CONDUIT] section:
  22932            22932-o          22932            132.00     0.0120     688.44     681.92     0          0

  
  ERROR 209: undefined object 22666-o at line 268 of [CONDUIT] section:
  22666            22666-o          22666            17.00      0.0250     679.24     679.15     0          0

  
  ERROR 209: undefined object 72778-o at line 270 of [CONDUIT] section:
  72778            72778-o          72778            77.00      0.0130     669.62     668.99     0          0

  
  ERROR 209: undefined object 22344-o at line 271 of [CONDUIT] section:
  22344            22344-o          22344            92.00      0.0130     668.85     667.19     0          0

  
  ERROR 209: undefined object 72782-o at line 272 of [CONDUIT] section:
  72782            72782-o          72782            31.00      0.0130     667.21     666.39     0          0

  
  ERROR 209: undefined object 60093-o at line 273 of [CONDUIT] section:
  60093            60093-o          60093            110.00     0.0130     666.15     663.66     0          0

  
  ERROR 209: undefined object 72792-o at line 274 of [CONDUIT] section:
  72792            72792-o          72792            31.00      0.0250     663.66     662.95     0          0

  
  ERROR 209: undefined object 50037-o at line 275 of [CONDUIT] section:
  50037            50037-o          50037            25.00      0.0250     661.68     661.45     0          0

  
  ERROR 209: undefined object 6026-o at line 276 of [CONDUIT] section:
  6026             6026-o           6026             88.00      0.0120     661.33     659.77     0          0

  
  ERROR 209: undefined object 73002-o at line 278 of [CONDUIT] section:
  73002            73002-o          73002            115.00     0.0120     656.68     655.77     0          0

  
  ERROR 209: undefined object 72998-2 at line 280 of [CONDUIT] section:
  72998            72998-2          72998-o          32.00      0.0130     652.69     652.89     0          0

  
  ERROR 209: undefined object 6062-o at line 281 of [CONDUIT] section:
  6062             6062-o           6062             55.00      0.0130     668.40     663.66     0          0

  
  ERROR 209: undefined object 23319-o at line 282 of [CONDUIT] section:
  23319            23319-o          23319            49.00      0.0130     667.37     667.19     0          0

  
  ERROR 209: undefined object 11568-o at line 283 of [CONDUIT] section:
  11568            11568-o          11568            36.00      0.0130     695.62     694.05     0          0

  
  ERROR 209: undefined object 11563-o at line 284 of [CONDUIT] section:
  11563            11563-o          11563            31.00      0.0130     694.05     692.55     0          0

  
  ERROR 209: undefined object 4102-o at line 288 of [CONDUIT] section:
  4102             4102-o           4102             40.00      0.0130     650.15     649.46     0          0

  
  ERROR 209: undefined object 11570-o at line 289 of [CONDUIT] section:
  11570            11570-o          11570            39.00      0.0130     696.30     695.00     0          0

  
  ERROR 209: undefined object 11571-o at line 290 of [CONDUIT] section:
  11571            11571-o          11571            91.00      0.0130     695.00     692.55     0          0

  
  ERROR 209: undefined object 10753-o at line 291 of [CONDUIT] section:
  10753            10753-o          10753            66.00      0.0250     677.91     676.26     0          0

  
  ERROR 209: undefined object 73010-o at line 293 of [CONDUIT] section:
  73010            73010-o          73010            73.00      0.0130     648.71     647.83     0          0

  
  ERROR 209: undefined object 17316-o at line 295 of [CONDUIT] section:
  17316            17316-o          17316            660.00     0.0130     658.90     657.82     0          0

  
  ERROR 209: undefined object 160-o at line 296 of [CONDUIT] section:
  160              160-o            160              671.00     0.0130     657.82     653.55     0          0

  
  ERROR 209: undefined object 17133-o at line 297 of [CONDUIT] section:
  17133-o          17133-o          162              37.00      0          654.00     652.00     0          0

  
  ERROR 209: undefined object 162-o at line 298 of [CONDUIT] section:
  162-o            162-o            16916            145.00     0          652.00     649.94     0          0

  
  ERROR 209: undefined object 73296-o at line 299 of [CONDUIT] section:
  73296-o          73296-o          163              20.00      0          655.00     648.99     0          0

  
  ERROR 209: undefined object 163-o at line 300 of [CONDUIT] section:
  163-o            163-o            23294            46.00      0          652.50     645.17     0          0

  
  ERROR 209: undefined object 164-o at line 301 of [CONDUIT] section:
  164              164-o            164              35.00      0.0130     660.99     660.97     0          0

  
  ERROR 209: undefined object 20208-o at line 305 of [CONDUIT] section:
  20208            20208-o          20208            156.00     0.0250     655.77     655.67     0          0

  
  ERROR 209: undefined object 72632-o at line 307 of [CONDUIT] section:
  72632-o          72632-o          726852           347.00     0.0240     695.00     683.59     0          0

  
  ERROR 209: undefined object 18427-o at line 309 of [CONDUIT] section:
  18427            18427-o          18427            94.00      0.0130     661.99     660.26     0          0

  
  ERROR 209: undefined object 75804-o at line 310 of [CONDUIT] section:
  75804            75804-o          75804            54.00      0.0130     659.97     658.96     0          0

  
  ERROR 209: undefined object 75806-o at line 311 of [CONDUIT] section:
  75806            75806-o          75806            91.00      0.0130     658.89     658.56     0          0

  
  ERROR 209: undefined object 18286-o at line 312 of [CONDUIT] section:
  18286            18286-o          18286            35.00      0.0130     658.43     657.33     0          0

  
  ERROR 209: undefined object 75814-o at line 314 of [CONDUIT] section:
  75814            75814-o          75814            41.00      0.0130     656.70     656.60     0          0

  
  ERROR 209: undefined object 75816-o at line 315 of [CONDUIT] section:
  75816            75816-o          75816            123.00     0.0130     656.63     655.10     0          0

  
  ERROR 209: undefined object 73840-o at line 316 of [CONDUIT] section:
  73840            73840-o          73840            44.00      0.0130     655.10     654.38     0          0

  
  ERROR 209: undefined object 73838-o at line 317 of [CONDUIT] section:
  73838            73838-o          73838            45.00      0.0130     654.27     654.12     0          0

  
  ERROR 209: undefined object 73834-o at line 318 of [CONDUIT] section:
  73834            73834-o          73834            73.00      0.0130     654.07     653.88     0          0

  
  ERROR 209: undefined object 73832-o at line 319 of [CONDUIT] section:
  73832            73832-o          73832            83.00      0.0130     653.78     653.15     0          0

  
  ERROR 209: undefined object 73126-o at line 320 of [CONDUIT] section:
  73126            73126-o          73126            126.00     0.0250     653.10     652.09     0          0

  
  ERROR 209: undefined object 73826-2 at line 323 of [CONDUIT] section:
  73826            73826-2          73826-o          44.00      0.0130     647.04     646.89     0          0

  
  ERROR 209: undefined object 73822-o at line 326 of [CONDUIT] section:
  73822            73822-o          73822            207.00     0.0130     643.19     640.50     0          0

  
  ERROR 209: undefined object 73816-o at line 328 of [CONDUIT] section:
  73816            73816-o          73816            41.00      0.0250     634.80     633.74     0          0

  
  ERROR 209: undefined object 75830-o at line 329 of [CONDUIT] section:
  75830            75830-o          75830            54.81      0.0130     666.55     664.60     0          0

  
  ERROR 209: undefined object 75828-o at line 330 of [CONDUIT] section:
  75828            75828-o          75828            150.58     0.0130     664.55     659.06     0          0

  
  ERROR 209: undefined object 75822-o at line 331 of [CONDUIT] section:
  75822            75822-o          75822            67.13      0.0130     658.90     656.86     0          0

  
  ERROR 209: undefined object 20332-o at line 332 of [CONDUIT] section:
  20332            20332-o          20332            52.00      0.0130     662.34     659.34     0          0

  
  ERROR 209: undefined object 18034-0 at line 333 of [CONDUIT] section:
  18034            18034-0          18034            155.00     0.0130     665.72     658.61     0          0

  
  ERROR 209: undefined object 18428-o at line 335 of [CONDUIT] section:
  18428            18428-o          18428            17.00      0.0250     660.81     660.12     0          0

  
  ERROR 209: undefined object 18393-o at line 336 of [CONDUIT] section:
  18393            18393-o          18393            51.00      0.0240     663.56     661.99     0          0

  
  ERROR 209: undefined object 73828-o at line 339 of [CONDUIT] section:
  73828            73828-o          73828            148.00     0.0130     651.81     647.25     0          0

  
  ERROR 209: undefined object 18000-o at line 340 of [CONDUIT] section:
  18000            18000-o          18000            65.00      0.0130     679.95     678.23     0          0

  
  ERROR 209: undefined object 18818-o at line 341 of [CONDUIT] section:
  18818            18818-o          18818            36.00      0.0130     678.10     676.83     0          0

  
  ERROR 209: undefined object 18001-o at line 342 of [CONDUIT] section:
  18001            18001-o          18001            62.00      0.0130     676.78     674.72     0          0

  
  ERROR 209: undefined object 18002-o at line 343 of [CONDUIT] section:
  18002            18002-o          18002            47.00      0.0130     674.55     673.65     0          0

  
  ERROR 209: undefined object 73838-o2 at line 344 of [CONDUIT] section:
  73838-o2         73838-o2         39               123.00     0          663.62     662.60     0          0

  
  ERROR 209: undefined object 39-o at line 345 of [CONDUIT] section:
  39-o             39-o             73126            43.00      0          662.60     658.02     0          0

  
  ERROR 209: undefined object 60087-o at line 346 of [CONDUIT] section:
  60087            60087-o          60087            220.00     0.0130     676.60     672.00     0          0

  
  ERROR 209: undefined object 75798-o at line 347 of [CONDUIT] section:
  75798            75798-o          75798            52.00      0.0250     672.00     670.90     0          0

  
  ERROR 209: undefined object 21047-o at line 362 of [CONDUIT] section:
  21047            21047-o          21047            37.00      0.0130     660.24     660.68     0          0

  
  ERROR 209: undefined object 20891-o at line 363 of [CONDUIT] section:
  20891            20891-o          20891            32.00      0.0130     660.66     660.26     0          0

  
  ERROR 209: undefined object 20877-o at line 365 of [CONDUIT] section:
  20877            20877-o          20877            292.07     0.0130     660.09     654.15     0          0

  
  ERROR 209: undefined object 20671-o at line 367 of [CONDUIT] section:
  20671            20671-o          20671            50.00      0.0130     651.02     649.78     0          0

  
  ERROR 209: undefined object 20646-o at line 368 of [CONDUIT] section:
  20646            20646-o          20646            28.00      0.0130     649.95     649.32     0          0

  
  ERROR 209: undefined object 20544-o at line 369 of [CONDUIT] section:
  20544            20544-o          20544            97.00      0.0130     648.92     646.78     0          0

  
  ERROR 209: undefined object 21197-o at line 370 of [CONDUIT] section:
  21197            21197-o          21197            67.00      0.0130     652.89     650.73     0          0

  
  ERROR 209: undefined object 20920-o at line 373 of [CONDUIT] section:
  20920-o          20920-o          21091            83.00      0          669.79     665.93     0          0

  
  Maximum error count exceeded.

  Analysis begun on:  Sat Mar  7 21:51:23 2026
  Analysis ended on:  Sat Mar  7 21:51:23 2026
  Total elapsed time: < 1 sec