
  EPA STORM WATER MANAGEMENT MODEL - VERSION 5.2 (Build 5.2.4)
  ------------------------------------------------------------

  
  ERROR 209: undefined object ? at line 164 of [CONDUIT] section:
  66274A           ?                Node_66          80.96      0.0130     24.93      23.70      0          0

  
  ERROR 209: undefined object ? at line 198 of [CONDUIT] section:
  Link_367         ?                ?                47.12      0.0130     13.69      13.59      0          0


  Analysis begun on:  Sat Mar  7 21:51:23 2026
  Analysis ended on:  Sat Mar  7 21:51:23 2026
  Total elapsed time: < 1 sec