
  EPA STORM WATER MANAGEMENT MODEL - VERSION 5.2 (Build 5.2.4)
  ------------------------------------------------------------

  
  ERROR 209: undefined object ? at line 47 of [ORIFICE] section:
  Orif             ?                ?                SIDE       0          0.650      NO       0

  
  ERROR 211: invalid number  at line 55 of [XSECT] section:
  Orif             RECT_CLOSED  0          0          0          0          


  Analysis begun on:  Sat Mar  7 21:51:32 2026
  Analysis ended on:  Sat Mar  7 21:51:32 2026
  Total elapsed time: < 1 sec