
  EPA STORM WATER MANAGEMENT MODEL - VERSION 5.2 (Build 5.2.4)
  ------------------------------------------------------------

  
  ERROR 211: invalid number  at line 119 of [XSECT] section:
  9400             CIRCULAR     0          0          0          0          1

  
  ERROR 211: invalid number  at line 120 of [XSECT] section:
  9300             CIRCULAR     0          0          0          0          1

  
  ERROR 211: invalid number  at line 121 of [XSECT] section:
  2320             CIRCULAR     0          0          0          0          1

  
  ERROR 211: invalid number  at line 122 of [XSECT] section:
  9200             CIRCULAR     0          0          0          0          1

  
  ERROR 211: invalid number  at line 123 of [XSECT] section:
  2310             CIRCULAR     0          0          0          0          1

  
  ERROR 211: invalid number  at line 124 of [XSECT] section:
  2220             CIRCULAR     0          0          0          0          1

  
  ERROR 211: invalid number  at line 125 of [XSECT] section:
  9100             CIRCULAR     0          0          0          0          1

  
  ERROR 211: invalid number  at line 126 of [XSECT] section:
  2110             CIRCULAR     0          0          0          0          1

  
  ERROR 211: invalid number  at line 127 of [XSECT] section:
  1910             CIRCULAR     0          0          0          0          1

  
  ERROR 211: invalid number  at line 128 of [XSECT] section:
  1810             CIRCULAR     0          0          0          0          1

  
  ERROR 211: invalid number  at line 129 of [XSECT] section:
  9072             CIRCULAR     0          0          0          0          1

  
  ERROR 211: invalid number  at line 130 of [XSECT] section:
  9070             CIRCULAR     0          0          0          0          1

  
  ERROR 211: invalid number  at line 131 of [XSECT] section:
  9060             CIRCULAR     0          0          0          0          1

  
  ERROR 211: invalid number  at line 132 of [XSECT] section:
  9000             CIRCULAR     0          0          0          0          1

  
  ERROR 211: invalid number  at line 133 of [XSECT] section:
  9062             CIRCULAR     0          0          0          0          1

  
  ERROR 211: invalid number  at line 134 of [XSECT] section:
  9054             CIRCULAR     0          0          0          0          1

  
  ERROR 211: invalid number  at line 135 of [XSECT] section:
  9050             CIRCULAR     0          0          0          0          1

  
  ERROR 211: invalid number  at line 136 of [XSECT] section:
  9040             CIRCULAR     0          0          0          0          1

  
  ERROR 211: invalid number  at line 137 of [XSECT] section:
  9030             CIRCULAR     0          0          0          0          1

  
  ERROR 211: invalid number  at line 138 of [XSECT] section:
  9052             CIRCULAR     0          0          0          0          1

  
  ERROR 211: invalid number  at line 139 of [XSECT] section:
  9042             CIRCULAR     0          0          0          0          1

  
  ERROR 211: invalid number  at line 140 of [XSECT] section:
  9032             CIRCULAR     0          0          0          0          1

  
  ERROR 211: invalid number  at line 141 of [XSECT] section:
  9024             CIRCULAR     0          0          0          0          1

  
  ERROR 211: invalid number  at line 142 of [XSECT] section:
  9020             CIRCULAR     0          0          0          0          1

  
  ERROR 211: invalid number  at line 143 of [XSECT] section:
  9022             CIRCULAR     0          0          0          0          1

  
  ERROR 211: invalid number  at line 144 of [XSECT] section:
  9014             CIRCULAR     0          0          0          0          1

  
  ERROR 211: invalid number  at line 145 of [XSECT] section:
  9012             CIRCULAR     0          0          0          0          1

  
  ERROR 211: invalid number  at line 146 of [XSECT] section:
  9010             CIRCULAR     0          0          0          0          1

  
  ERROR 211: invalid number  at line 147 of [XSECT] section:
  1510             CIRCULAR     0          0          0          0          1

  
  ERROR 211: invalid number  at line 148 of [XSECT] section:
  920              CIRCULAR     0          0          0          0          1

  
  ERROR 211: invalid number  at line 149 of [XSECT] section:
  820              CIRCULAR     0          0          0          0          1

  
  ERROR 211: invalid number  at line 150 of [XSECT] section:
  620              CIRCULAR     0          0          0          0          1

  
  ERROR 211: invalid number  at line 151 of [XSECT] section:
  610              CIRCULAR     0          0          0          0          1


  Analysis begun on:  Sat Mar  7 21:51:27 2026
  Analysis ended on:  Sat Mar  7 21:51:27 2026
  Total elapsed time: < 1 sec