
  EPA STORM WATER MANAGEMENT MODEL - VERSION 5.2 (Build 5.2.4)
  ------------------------------------------------------------

  
  ERROR 209: undefined object ? at line 52 of [CONDUIT] section:
  6203a            ?                ?                200.00     0.0130     676.00     675.00     0          0

  
  ERROR 209: undefined object ? at line 53 of [CONDUIT] section:
  6206a            ?                ?                767.00     0.0130     689.81     685.99     0          0

  
  ERROR 211: invalid number  at line 93 of [XSECT] section:
  MUL1             RECT_OPEN    0          1000.00    0          0          


  Analysis begun on:  Sat Mar  7 21:51:33 2026
  Analysis ended on:  Sat Mar  7 21:51:33 2026
  Total elapsed time: < 1 sec