
  EPA STORM WATER MANAGEMENT MODEL - VERSION 5.2 (Build 5.2.4)
  ------------------------------------------------------------

  
  ERROR 209: undefined object 213.2 at line 45 of [CONDUIT] section:
  213.1            213.2            MH2/1            100.00     0.0120     100.00     99.00      0          0

  
  ERROR 211: invalid number  at line 61 of [XSECT] section:
  209.1            RECT_OPEN    0          3.00       0          0          


  Analysis begun on:  Sat Mar  7 21:51:33 2026
  Analysis ended on:  Sat Mar  7 21:51:33 2026
  Total elapsed time: < 1 sec