
  EPA STORM WATER MANAGEMENT MODEL - VERSION 5.2 (Build 5.2.4)
  ------------------------------------------------------------

  
  ERROR 209: undefined object ? at line 840 of [CONDUIT] section:
  RIX74753C        ?                Node_74          1173.00    0.0130     237.96     235.88     0          0

  
  ERROR 209: undefined object Node_2468 at line 1180 of [CONDUIT] section:
  RER02468C        Node_2468        Node_1168483     193.00     0.0130     275.35     272.44     0          0

  
  ERROR 209: undefined object Node_3369 at line 1181 of [CONDUIT] section:
  PNH03369C        Node_3369        Node_11921191    1208.60    0.0130     19.92      17.63      0          0

  
  ERROR 209: undefined object Node_4577 at line 1182 of [CONDUIT] section:
  PNH04577C        Node_4577        Node_11931192    1207.80    0.0130     22.22      19.92      0          0

  
  ERROR 209: undefined object Node_5699 at line 1183 of [CONDUIT] section:
  PNH05699C        Node_5699        Node_11941193    1122.10    0.0130     24.35      22.22      0          0

  
  ERROR 209: undefined object Node_6888 at line 1184 of [CONDUIT] section:
  PNH06888C        Node_6888        Node_11951194    1189.10    0.0136     26.61      24.35      0          0

  
  ERROR 209: undefined object Node_8216 at line 1185 of [CONDUIT] section:
  PNH08216C        Node_8216        Node_11961195    1328.10    0.0130     29.13      26.61      0          0

  
  ERROR 209: undefined object Node_9525 at line 1186 of [CONDUIT] section:
  PNH09525C        Node_9525        Node_11971196    1308.50    0.0130     31.62      29.13      0          0

  
  ERROR 209: undefined object Node_10841 at line 1187 of [CONDUIT] section:
  PNH10841C        Node_10841       Node_11981197    1315.90    0.0130     34.13      31.62      0          0

  
  ERROR 209: undefined object Node_12169 at line 1188 of [CONDUIT] section:
  PNH12169C        Node_12169       Node_11991198    1328.00    0.0130     36.64      34.13      0          0

  
  ERROR 209: undefined object Node_13497 at line 1189 of [CONDUIT] section:
  PNH13497C        Node_13497       Node_12001199    1328.00    0.0130     39.17      36.64      0          0

  
  ERROR 209: undefined object Node_14830 at line 1190 of [CONDUIT] section:
  PNH14830C        Node_14830       Node_12011200    1333.30    0.0130     41.70      39.17      0          0

  
  ERROR 209: undefined object Node_16132 at line 1191 of [CONDUIT] section:
  PNH16132C        Node_16132       Node_12021201    1302.40    0.0130     45.34      41.70      0          0

  
  ERROR 209: undefined object Node_17448 at line 1192 of [CONDUIT] section:
  PNH17448C        Node_17448       Node_12031202    1316.00    0.0130     48.76      45.34      0          0

  
  ERROR 209: undefined object Node_18260 at line 1193 of [CONDUIT] section:
  PNH18260C        Node_18260       Node_12041203    811.70     0.0130     50.20      48.76      0          0

  
  ERROR 209: undefined object Node_18704 at line 1194 of [CONDUIT] section:
  PNH18704C        Node_18704       Node_12051204    444.40     0.0130     50.89      50.20      0          0

  
  ERROR 209: undefined object Node_19945 at line 1195 of [CONDUIT] section:
  PNH19945C        Node_19945       Node_12061205    1240.80    0.0130     53.00      50.89      0          0

  
  ERROR 209: undefined object Node_21313 at line 1196 of [CONDUIT] section:
  PNH21313C        Node_21313       Node_12071206    1368.00    0.0130     56.40      53.00      0          0

  
  ERROR 209: undefined object Node_22598 at line 1197 of [CONDUIT] section:
  PNH22598C        Node_22598       Node_12081207    1284.30    0.0130     59.33      56.40      0          0

  
  ERROR 209: undefined object Node_22686 at line 1198 of [CONDUIT] section:
  PNH22686C        Node_22686       Node_12091208    88.30      0.0201     60.49      59.33      0          0

  
  ERROR 209: undefined object Node_23954 at line 1199 of [CONDUIT] section:
  PNH23954C        Node_23954       Node_12101209    1267.60    0.0130     63.39      60.49      0          0

  
  ERROR 209: undefined object Node_25223 at line 1200 of [CONDUIT] section:
  PNH25223C        Node_25223       Node_12111210    1269.60    0.0130     66.33      63.39      0          0

  
  ERROR 209: undefined object Node_25326 at line 1201 of [CONDUIT] section:
  PNH25326C        Node_25326       Node_12121211    102.50     0.0130     66.56      66.33      0          0

  
  ERROR 209: undefined object Node_26774 at line 1202 of [CONDUIT] section:
  PNH26774C        Node_26774       Node_12131212    1448.50    0.0130     68.88      66.56      0          0

  
  ERROR 209: undefined object Node_27923 at line 1203 of [CONDUIT] section:
  PNH27923C        Node_27923       Node_12141213    1149.40    0.0130     72.00      68.88      0          0

  
  ERROR 209: undefined object Node_28537 at line 1204 of [CONDUIT] section:
  PNH28537C        Node_28537       Node_12151214    612.30     0.0140     72.79      71.33      0          0

  
  ERROR 209: undefined object Node_29048 at line 1205 of [CONDUIT] section:
  PNH29048C        Node_29048       Node_12161215    511.00     0.0130     74.02      72.79      0          0

  
  ERROR 209: undefined object Node_30606 at line 1206 of [CONDUIT] section:
  PNH30606C        Node_30606       Node_12171216    1557.50    0.0130     77.76      74.02      0          0

  
  ERROR 209: undefined object Node_31917 at line 1207 of [CONDUIT] section:
  PNH31917C        Node_31917       Node_12181217    1311.50    0.0130     80.91      77.76      0          0

  
  ERROR 209: undefined object Node_33236 at line 1208 of [CONDUIT] section:
  PNH33236C        Node_33236       Node_12191218    1319.30    0.0130     84.08      80.91      0          0

  
  ERROR 209: undefined object Node_34562 at line 1209 of [CONDUIT] section:
  PNH34562C        Node_34562       Node_12201219    1325.80    0.0130     86.20      84.08      0          0

  
  ERROR 209: undefined object Node_35865 at line 1210 of [CONDUIT] section:
  PNH35865C        Node_35865       Node_12211220    1302.20    0.0130     88.88      86.20      0          0

  
  ERROR 209: undefined object Node_37191 at line 1211 of [CONDUIT] section:
  PNH37191C        Node_37191       Node_12221221    1325.30    0.0135     91.44      88.28      0          0

  
  ERROR 209: undefined object Node_38520 at line 1212 of [CONDUIT] section:
  PNH38520C        Node_38520       Node_12231222    1321.00    0.0130     94.35      91.44      0          0

  
  ERROR 209: undefined object Node_39372 at line 1213 of [CONDUIT] section:
  PNH39372C        Node_39372       Node_12241223    852.70     0.0137     96.23      94.35      0          0

  
  ERROR 209: undefined object Node_40213 at line 1214 of [CONDUIT] section:
  PNH40213C        Node_40213       Node_12251224    861.50     0.0130     98.12      96.23      0          0

  
  ERROR 209: undefined object Node_41026 at line 1215 of [CONDUIT] section:
  PNH41026C        Node_41026       Node_12261225    813.00     0.0137     99.62      98.12      0          0

  
  ERROR 209: undefined object Node_41962 at line 1216 of [CONDUIT] section:
  PNH41962C        Node_41962       Node_12271226    936.00     0.0130     102.47     99.62      0          0

  
  ERROR 209: undefined object Node_841 at line 1217 of [CONDUIT] section:
  PNB00841C        Node_841         Node_12431236    804.30     0.0130     267.00     263.37     0          0

  
  ERROR 209: undefined object Node_1010 at line 1218 of [CONDUIT] section:
  PNB01010C        Node_1010        Node_12441243    169.40     0.0130     269.63     267.00     0          0

  
  ERROR 209: undefined object ? at line 1219 of [CONDUIT] section:
  PNB01340C        ?                PCY74400         329.50     0.0130     272.53     269.63     0          0

  
  ERROR 209: undefined object Node_2355 at line 1220 of [CONDUIT] section:
  PRH02355C        Node_2355        Node_12301464    755.30     0.0133     254.42     249.35     0          0

  
  ERROR 209: undefined object Node_2576 at line 1221 of [CONDUIT] section:
  PRH02576C        Node_2576        Node_12311230    220.70     0.0141     255.13     254.42     0          0

  
  ERROR 209: undefined object Node_2890 at line 1222 of [CONDUIT] section:
  PRH02890C        Node_2890        Node_12321231    314.00     0.0130     256.13     255.13     0          0

  
  ERROR 209: undefined object Node_3188 at line 1223 of [CONDUIT] section:
  PRH03188C        Node_3188        Node_12331232    298.30     0.0130     257.09     256.13     0          0

  
  ERROR 209: undefined object Node_3752 at line 1224 of [CONDUIT] section:
  PRH03752C        Node_3752        Node_12341233    564.40     0.0130     258.90     257.09     0          0

  
  ERROR 209: undefined object Node_4600 at line 1225 of [CONDUIT] section:
  PRH04600C        Node_4600        Node_12351234    847.30     0.0130     261.61     258.90     0          0

  
  ERROR 209: undefined object Node_5030 at line 1226 of [CONDUIT] section:
  PRH05030C        Node_5030        Node_12361235    430.90     0.0136     262.99     261.61     0          0

  
  ERROR 209: undefined object Node_5380 at line 1227 of [CONDUIT] section:
  PRH05380C        Node_5380        Node_12371236    349.10     0.0130     281.64     263.49     0          0

  
  ERROR 209: undefined object Node_5605 at line 1228 of [CONDUIT] section:
  PRH05605C        Node_5605        Node_12381237    225.40     0.0130     293.61     281.64     0          0

  
  ERROR 209: undefined object Node_5823 at line 1229 of [CONDUIT] section:
  PRH05823C        Node_5823        Node_12391238    218.60     0.0130     304.80     293.61     0          0

  
  ERROR 209: undefined object Node_6312 at line 1230 of [CONDUIT] section:
  PRH06312C        Node_6312        Node_12401239    488.00     0.0130     323.95     304.80     0          0

  
  ERROR 209: undefined object Node_6813 at line 1231 of [CONDUIT] section:
  PRH06813C        Node_6813        Node_12411240    501.10     0.0130     333.65     323.95     0          0

  
  ERROR 209: undefined object Node_7580 at line 1232 of [CONDUIT] section:
  PRH07580C        Node_7580        Node_12421241    760.00     0.0130     350.53     333.65     0          0

  
  ERROR 209: undefined object Node_827 at line 1233 of [CONDUIT] section:
  PSA00827C        Node_827         Node_12481247    403.00     0.0130     73.49      72.93      0          0

  
  ERROR 209: undefined object ? at line 1234 of [CONDUIT] section:
  PSA01315C        ?                PNP60548         488.00     0.0130     74.18      73.49      0          0

  
  ERROR 209: undefined object Node_1979 at line 1235 of [CONDUIT] section:
  PSA01979C        Node_1979        Node_12501249    664.80     0.0130     75.11      74.18      0          0

  
  ERROR 209: undefined object Node_2665 at line 1236 of [CONDUIT] section:
  PSA02665C        Node_2665        Node_12511250    686.10     0.0130     76.07      75.11      0          0

  
  ERROR 209: undefined object Node_3143 at line 1237 of [CONDUIT] section:
  PSA03143C        Node_3143        Node_12521251    475.10     0.0138     76.73      76.07      0          0

  
  ERROR 209: undefined object Node_3578 at line 1238 of [CONDUIT] section:
  PSA03578C        Node_3578        Node_12531252    446.80     0.0130     77.35      76.73      0          0

  
  ERROR 209: undefined object Node_3754 at line 1239 of [CONDUIT] section:
  PSA03754C        Node_3754        Node_12541253    165.00     0.0150     78.00      77.62      0          0

  
  ERROR 209: undefined object Node_4249 at line 1240 of [CONDUIT] section:
  PSA04249C        Node_4249        Node_12551254    494.20     0.0130     78.91      78.00      0          0

  
  ERROR 209: undefined object Node_4766 at line 1241 of [CONDUIT] section:
  PSA04766C        Node_4766        Node_12561255    517.00     0.0130     79.94      78.91      0          0

  
  ERROR 209: undefined object Node_5407 at line 1242 of [CONDUIT] section:
  PSA05407C        Node_5407        Node_12571256    641.00     0.0130     81.22      79.94      0          0

  
  ERROR 209: undefined object Node_5902 at line 1243 of [CONDUIT] section:
  PSA05902C        Node_5902        Node_12581257    495.00     0.0130     82.21      81.22      0          0

  
  ERROR 209: undefined object Node_6223 at line 1244 of [CONDUIT] section:
  PSA06223C        Node_6223        Node_12591258    321.00     0.0130     82.85      82.21      0          0

  
  ERROR 209: undefined object Node_6556 at line 1245 of [CONDUIT] section:
  PSA06556C        Node_6556        Node_12601259    333.00     0.0130     84.24      82.85      0          0

  
  ERROR 209: undefined object Node_6711 at line 1246 of [CONDUIT] section:
  PSA06711C        Node_6711        Node_12611260    155.20     0.0130     84.76      84.24      0          0

  
  ERROR 209: undefined object Node_7382 at line 1247 of [CONDUIT] section:
  PSA07382C        Node_7382        Node_12621261    671.00     0.0130     87.05      84.76      0          0

  
  ERROR 209: undefined object Node_8097 at line 1248 of [CONDUIT] section:
  PSA08097C        Node_8097        Node_12631262    715.00     0.0130     89.48      87.05      0          0

  
  ERROR 209: undefined object Node_8482 at line 1249 of [CONDUIT] section:
  PSA08482C        Node_8482        Node_12641263    385.00     0.0130     90.79      89.48      0          0

  
  ERROR 209: undefined object Node_8894 at line 1250 of [CONDUIT] section:
  PSA08894C        Node_8894        Node_12651264    412.50     0.0130     92.01      90.79      0          0

  
  ERROR 209: undefined object Node_9266 at line 1251 of [CONDUIT] section:
  PSA09266C        Node_9266        Node_12661265    371.60     0.0130     93.20      92.01      0          0

  
  ERROR 209: undefined object Node_9862 at line 1252 of [CONDUIT] section:
  PSA09862C        Node_9862        Node_12671266    596.00     0.0130     94.75      93.20      0          0

  
  ERROR 209: undefined object Node_10250 at line 1253 of [CONDUIT] section:
  PSA10250C        Node_10250       Node_12681267    388.00     0.0130     95.76      94.75      0          0

  
  ERROR 209: undefined object Node_10635 at line 1254 of [CONDUIT] section:
  PSA10635C        Node_10635       Node_12691268    385.00     0.0130     96.72      95.76      0          0

  
  ERROR 209: undefined object Node_11013 at line 1255 of [CONDUIT] section:
  PSA11013C        Node_11013       Node_12701269    378.00     0.0130     97.74      96.72      0          0

  
  ERROR 209: undefined object Node_11490 at line 1256 of [CONDUIT] section:
  PSA11490C        Node_11490       Node_12711270    477.00     0.0130     99.23      97.74      0          0

  
  ERROR 209: undefined object Node_12228 at line 1257 of [CONDUIT] section:
  PSA12228C        Node_12228       Node_12721271    738.00     0.0130     102.19     99.23      0          0

  
  ERROR 209: undefined object Node_12590 at line 1258 of [CONDUIT] section:
  PSA12590C        Node_12590       Node_12731272    362.00     0.0130     103.63     102.19     0          0

  
  ERROR 209: undefined object Node_12646 at line 1259 of [CONDUIT] section:
  PSA12646C        Node_12646       Node_12741273    56.00      0.0130     103.80     103.63     0          0

  
  ERROR 209: undefined object Node_13190 at line 1260 of [CONDUIT] section:
  PSA13190C        Node_13190       Node_12751274    544.00     0.0130     106.03     103.80     0          0

  
  ERROR 209: undefined object Node_13755 at line 1261 of [CONDUIT] section:
  PSA13755C        Node_13755       Node_12761275    565.00     0.0130     108.29     106.03     0          0

  
  ERROR 209: undefined object Node_13961 at line 1262 of [CONDUIT] section:
  PSA13961C        Node_13961       Node_12771276    206.00     0.0130     109.00     108.29     0          0

  
  ERROR 209: undefined object Node_14098 at line 1263 of [CONDUIT] section:
  PSA14098C        Node_14098       Node_12781277    137.50     0.0130     109.67     109.00     0          0

  
  ERROR 209: undefined object Node_14147 at line 1264 of [CONDUIT] section:
  PSA14147C        Node_14147       Node_12791278    49.20      0.0130     109.86     109.67     0          0

  
  ERROR 209: undefined object Node_14782 at line 1265 of [CONDUIT] section:
  PSA14782C        Node_14782       Node_12801279    635.30     0.0135     111.06     109.86     0          0

  
  ERROR 209: undefined object Node_15453 at line 1266 of [CONDUIT] section:
  PSA15453C        Node_15453       Node_12811280    670.40     0.0130     112.25     111.06     0          0

  
  ERROR 209: undefined object Node_15811 at line 1267 of [CONDUIT] section:
  PSA15811C        Node_15811       Node_12821281    357.70     0.0138     112.72     112.25     0          0

  
  ERROR 209: undefined object Node_16325 at line 1268 of [CONDUIT] section:
  PSA16325C        Node_16325       Node_12831282    514.00     0.0130     113.44     112.72     0          0

  
  ERROR 209: undefined object Node_16920 at line 1269 of [CONDUIT] section:
  PSA16920C        Node_16920       Node_12841283    595.00     0.0130     114.27     113.44     0          0

  
  ERROR 209: undefined object Node_17336 at line 1270 of [CONDUIT] section:
  PSA17336C        Node_17336       Node_12851284    417.00     0.0130     114.85     114.27     0          0

  
  ERROR 209: undefined object Node_17515 at line 1271 of [CONDUIT] section:
  PSA17515C        Node_17515       Node_12861285    178.10     0.0130     115.11     114.85     0          0

  
  ERROR 209: undefined object Node_18110 at line 1272 of [CONDUIT] section:
  PSA18110C        Node_18110       Node_12871286    595.00     0.0130     115.94     115.11     0          0

  
  ERROR 209: undefined object Node_18710 at line 1273 of [CONDUIT] section:
  PSA18710C        Node_18710       Node_12881287    600.00     0.0130     117.08     115.94     0          0

  
  ERROR 209: undefined object Node_19305 at line 1274 of [CONDUIT] section:
  PSA19305C        Node_19305       Node_12891288    595.00     0.0130     117.96     117.08     0          0

  
  ERROR 209: undefined object Node_19877 at line 1275 of [CONDUIT] section:
  PSA19877C        Node_19877       Node_12901289    572.00     0.0130     118.81     117.96     0          0

  
  ERROR 209: undefined object Node_20179 at line 1276 of [CONDUIT] section:
  PSA20179C        Node_20179       Node_12911290    302.00     0.0130     119.26     118.81     0          0

  
  ERROR 209: undefined object Node_20439 at line 1277 of [CONDUIT] section:
  PSA20439C        Node_20439       Node_12921291    260.00     0.0130     119.64     119.26     0          0

  
  ERROR 209: undefined object Node_20821 at line 1278 of [CONDUIT] section:
  PSA20821C        Node_20821       Node_12931292    382.00     0.0130     120.18     119.64     0          0

  
  Maximum error count exceeded.

  Analysis begun on:  Sat Mar  7 21:51:31 2026
  Analysis ended on:  Sat Mar  7 21:51:31 2026
  Total elapsed time: < 1 sec