
  EPA STORM WATER MANAGEMENT MODEL - VERSION 5.2 (Build 5.2.4)
  ------------------------------------------------------------

  
  *************
  Element Count
  *************
  Number of rain gages ...... 0
  Number of subcatchments ... 0
  Number of nodes ........... 10
  Number of links ........... 12
  Number of pollutants ...... 0
  Number of land uses ....... 0
  
  
  ************
  Node Summary
  ************
                                           Invert      Max.    Ponded    External
  Name                 Type                 Elev.     Depth      Area    Inflow  
  -------------------------------------------------------------------------------
  238                  JUNCTION              9.99     10.01       0.0
  240                  JUNCTION              9.98     10.02       0.0
  Outfall              OUTFALL               9.97      4.00       0.0
  Duckpond             STORAGE              10.00     10.00       0.0    Yes
  202                  STORAGE              10.00     10.00       0.0
  203                  STORAGE              10.00     10.00       0.0
  204                  STORAGE              10.00     10.00       0.0
  205                  STORAGE              10.00     10.00       0.0
  206                  STORAGE              10.00     10.00       0.0
  207                  STORAGE              10.00     10.00       0.0
  
  
  ************
  Link Summary
  ************
  Name             From Node        To Node          Type            Length    %Slope Roughness
  ---------------------------------------------------------------------------------------------
  239              206              238              CONDUIT          100.0    0.0100    0.0140
  241              238              240              CONDUIT          100.0    0.0100    0.0140
  243              240              Outfall          CONDUIT          100.0    0.0100    0.0140
  WEIR#2           202              205              WEIR        
  WEIR#3           205              Duckpond         WEIR        
  WEIR#4           202              207              WEIR        
  WEIR#5           207              203              WEIR        
  WEIR#6           203              204              WEIR        
  WEIR#7           204              206              WEIR        
  WEIR#8           206              203              WEIR        
  WEIR#9           203              202              WEIR        
  WEIR#11          207              206              WEIR        
  
  
  *********************
  Cross Section Summary
  *********************
                                        Full     Full     Hyd.     Max.   No. of     Full
  Conduit          Shape               Depth     Area     Rad.    Width  Barrels     Flow
  ---------------------------------------------------------------------------------------
  239              TRAPEZOIDAL          4.00    32.00     2.09    12.00        1    55.52
  241              TRAPEZOIDAL          4.00    32.00     2.09    12.00        1    55.52
  243              TRAPEZOIDAL          4.00    32.00     2.09    12.00        1    55.52
  
  
  ****************
  Analysis Options
  ****************
  Flow Units ............... CFS
  Process Models:
    Rainfall/Runoff ........ NO
    RDII ................... NO
    Snowmelt ............... NO
    Groundwater ............ NO
    Flow Routing ........... YES
    Ponding Allowed ........ NO
    Water Quality .......... NO
  Flow Routing Method ...... DYNWAVE
  Surcharge Method ......... EXTRAN
  Starting Date ............ 01/01/1996 00:00:00
  Ending Date .............. 01/01/1996 02:00:00
  Antecedent Dry Days ...... 0.0
  Report Time Step ......... 00:00:30
  Routing Time Step ........ 30.00 sec
  Variable Time Step ....... YES
  Maximum Trials ........... 8
  Number of Threads ........ 1
  Head Tolerance ........... 0.005000 ft
  
  
  **************************        Volume        Volume
  Flow Routing Continuity        acre-feet      10^6 gal
  **************************     ---------     ---------
  Dry Weather Inflow .......         0.000         0.000
  Wet Weather Inflow .......         0.000         0.000
  Groundwater Inflow .......         0.000         0.000
  RDII Inflow ..............         0.000         0.000
  External Inflow ..........         6.912         2.252
  External Outflow .........         2.104         0.686
  Flooding Loss ............         0.000         0.000
  Evaporation Loss .........         0.000         0.000
  Exfiltration Loss ........         0.000         0.000
  Initial Stored Volume ....         4.763         1.552
  Final Stored Volume ......         9.574         3.120
  Continuity Error (%) .....        -0.034
  
  
  *************************
  Highest Continuity Errors
  *************************
  Node 240 (-1.54%)
  Node 238 (-1.50%)
  
  
  ***************************
  Time-Step Critical Elements
  ***************************
  Link 243 (98.91%)
  
  
  ********************************
  Highest Flow Instability Indexes
  ********************************
  Link WEIR#4 (1)
  Link 243 (1)
  
  
  *********************************
  Most Frequent Nonconverging Nodes
  *********************************
  Convergence obtained at all time steps.
  
  
  *************************
  Routing Time Step Summary
  *************************
  Minimum Time Step           :     5.79 sec
  Average Time Step           :     9.84 sec
  Maximum Time Step           :    12.59 sec
  % of Time in Steady State   :     0.00
  Average Iterations per Step :     2.02
  % of Steps Not Converging   :     0.00
  Time Step Frequencies       :
     30.000 - 13.228 sec      :     0.00 %
     13.228 -  5.833 sec      :    99.18 %
      5.833 -  2.572 sec      :     0.82 %
      2.572 -  1.134 sec      :     0.00 %
      1.134 -  0.500 sec      :     0.00 %
  
  
  ******************
  Node Depth Summary
  ******************
  
  ---------------------------------------------------------------------------------
                                 Average  Maximum  Maximum  Time of Max    Reported
                                   Depth    Depth      HGL   Occurrence   Max Depth
  Node                 Type         Feet     Feet     Feet  days hr:min        Feet
  ---------------------------------------------------------------------------------
  238                  JUNCTION     1.01     2.51    12.50     0  00:00        2.28
  240                  JUNCTION     0.89     2.52    12.50     0  00:00        2.13
  Outfall              OUTFALL      0.66     1.84    11.81     0  00:02        1.83
  Duckpond             STORAGE      4.14     6.35    16.35     0  02:00        6.35
  202                  STORAGE      2.30     2.50    12.50     0  00:00        2.50
  203                  STORAGE      2.26     2.50    12.50     0  00:00        2.50
  204                  STORAGE      2.11     2.50    12.50     0  00:00        2.50
  205                  STORAGE      2.41     2.50    12.50     0  00:00        2.50
  206                  STORAGE      1.09     2.50    12.50     0  00:00        2.50
  207                  STORAGE      2.31     2.50    12.50     0  00:00        2.50
  
  
  *******************
  Node Inflow Summary
  *******************
  
  -------------------------------------------------------------------------------------------------
                                  Maximum  Maximum                  Lateral       Total        Flow
                                  Lateral    Total  Time of Max      Inflow      Inflow     Balance
                                   Inflow   Inflow   Occurrence      Volume      Volume       Error
  Node                 Type           CFS      CFS  days hr:min    10^6 gal    10^6 gal     Percent
  -------------------------------------------------------------------------------------------------
  238                  JUNCTION      0.00    74.00     0  00:01           0       0.665      -1.480
  240                  JUNCTION      0.00    71.05     0  00:01           0       0.675      -1.518
  Outfall              OUTFALL       0.00    71.96     0  00:02           0       0.686       0.000
  Duckpond             STORAGE      50.00    50.00     0  00:30        2.25        2.47      -0.000
  202                  STORAGE       0.00     1.29     0  01:10           0       0.276      -0.001
  203                  STORAGE       0.00     3.69     0  00:43           0       0.388       0.001
  204                  STORAGE       0.00     4.83     0  00:42           0       0.446       0.004
  205                  STORAGE       0.00     0.00     0  00:00           0       0.217      -0.002
  206                  STORAGE       0.00    13.01     0  00:11           0        0.67      -0.644
  207                  STORAGE       0.00     0.45     0  00:10           0       0.223       0.002
  
  
  **********************
  Node Surcharge Summary
  **********************
  
  Surcharging occurs when water rises above the top of the highest conduit.
  ---------------------------------------------------------------------
                                               Max. Height   Min. Depth
                                   Hours       Above Crown    Below Rim
  Node                 Type      Surcharged           Feet         Feet
  ---------------------------------------------------------------------
  Duckpond             STORAGE         0.71          1.349        3.651
  
  
  *********************
  Node Flooding Summary
  *********************
  
  No nodes were flooded.
  
  
  **********************
  Storage Volume Summary
  **********************
  
  ------------------------------------------------------------------------------------------------
                         Average    Avg   Evap  Exfil     Maximum    Max    Time of Max    Maximum
                          Volume   Pcnt   Pcnt   Pcnt      Volume   Pcnt     Occurrence    Outflow
  Storage Unit          1000 ftł   Full   Loss   Loss    1000 ftł   Full    days hr:min        CFS
  ------------------------------------------------------------------------------------------------
  Duckpond               140.308   19.6    0.0    0.0     330.154   46.2       0  02:00       0.00
  202                     23.225    3.3    0.0    0.0      29.076    4.1       0  00:00       3.16
  203                     22.168    3.1    0.0    0.0      29.076    4.1       0  00:00       6.07
  204                     18.552    2.6    0.0    0.0      29.076    4.1       0  00:00       9.25
  205                     26.128    3.7    0.0    0.0      29.076    4.1       0  00:00       1.11
  206                      4.335    0.6    0.0    0.0      29.076    4.1       0  00:00      74.00
  207                     23.433    3.3    0.0    0.0      29.076    4.1       0  00:00       2.47
  
  
  ***********************
  Outfall Loading Summary
  ***********************
  
  -----------------------------------------------------------
                         Flow       Avg       Max       Total
                         Freq      Flow      Flow      Volume
  Outfall Node           Pcnt       CFS       CFS    10^6 gal
  -----------------------------------------------------------
  Outfall              100.00     15.02     71.96       0.686
  -----------------------------------------------------------
  System               100.00     15.02     71.96       0.686
  
  
  ********************
  Link Flow Summary
  ********************
  
  -----------------------------------------------------------------------------
                                 Maximum  Time of Max   Maximum    Max/    Max/
                                  |Flow|   Occurrence   |Veloc|    Full    Full
  Link                 Type          CFS  days hr:min    ft/sec    Flow   Depth
  -----------------------------------------------------------------------------
  239                  CONDUIT     74.00     0  00:01      5.03    1.33    0.63
  241                  CONDUIT     71.05     0  00:01      5.22    1.28    0.63
  243                  CONDUIT     71.96     0  00:02      6.19    1.30    0.50
  WEIR#2               WEIR         1.11     0  00:50                      0.17
  WEIR#3               WEIR         0.00     0  00:00                      0.00
  WEIR#4               WEIR         0.45     0  00:10                      0.17
  WEIR#5               WEIR         0.69     0  00:31                      0.17
  WEIR#6               WEIR         4.83     0  00:42                      0.38
  WEIR#7               WEIR         9.25     0  00:14                      0.38
  WEIR#8               WEIR         2.08     0  00:05                      0.17
  WEIR#9               WEIR         3.06     0  00:50                      0.38
  WEIR#11              WEIR         2.10     0  00:05                      0.17
  
  
  ***************************
  Flow Classification Summary
  ***************************
  
  -------------------------------------------------------------------------------------
                      Adjusted    ---------- Fraction of Time in Flow Class ---------- 
                       /Actual         Up    Down  Sub   Sup   Up    Down  Norm  Inlet 
  Conduit               Length    Dry  Dry   Dry   Crit  Crit  Crit  Crit  Ltd   Ctrl  
  -------------------------------------------------------------------------------------
  239                     1.00   0.00  0.00  0.00  1.00  0.00  0.00  0.00  0.00  0.00
  241                     1.00   0.00  0.00  0.00  1.00  0.00  0.00  0.00  0.00  0.00
  243                     1.00   0.00  0.00  0.00  1.00  0.00  0.00  0.00  0.00  0.00
  
  
  *************************
  Conduit Surcharge Summary
  *************************
  
  ----------------------------------------------------------------------------
                                                           Hours        Hours 
                         --------- Hours Full --------   Above Full   Capacity
  Conduit                Both Ends  Upstream  Dnstream   Normal Flow   Limited
  ----------------------------------------------------------------------------
  239                         0.01      0.01      0.01      0.04         0.01
  241                         0.01      0.01      0.01      0.05         0.01
  243                         0.01      0.01      0.01      0.05         0.01
  

  Analysis begun on:  Sat Mar  7 21:51:22 2026
  Analysis ended on:  Sat Mar  7 21:51:22 2026
  Total elapsed time: < 1 sec