
  EPA STORM WATER MANAGEMENT MODEL - VERSION 5.2 (Build 5.2.4)
  ------------------------------------------------------------

  
  ERROR 211: invalid number  at line 53 of [XSECT] section:
  pipe2            RECT_OPEN    0          4.00       0          0          

  
  ERROR 211: invalid number  at line 54 of [XSECT] section:
  pipe             RECT_OPEN    0          4.00       0          0          


  Analysis begun on:  Sat Mar  7 21:51:22 2026
  Analysis ended on:  Sat Mar  7 21:51:22 2026
  Total elapsed time: < 1 sec