
  EPA STORM WATER MANAGEMENT MODEL - VERSION 5.2 (Build 5.2.4)
  ------------------------------------------------------------

  
  ERROR 207: duplicate ID name Outfall at line 43 of [STORAGE] section:
  Outfall          19.00      0          0          FUNCTIONAL 18.00 0          0

  
  ERROR 207: duplicate ID name Pipe at line 59 of [CONDUIT] section:
  Pipe             23               Outfall          200.00     0          14.00      13.00      0          0


  Analysis begun on:  Sat Mar  7 21:51:29 2026
  Analysis ended on:  Sat Mar  7 21:51:29 2026
  Total elapsed time: < 1 sec