
  EPA STORM WATER MANAGEMENT MODEL - VERSION 5.2 (Build 5.2.4)
  ------------------------------------------------------------

  
  ERROR 211: invalid number  at line 881 of [XSECT] section:
  LC002LC004       CIRCULAR     0          0          0          0          1

  
  ERROR 211: invalid number  at line 883 of [XSECT] section:
  LC004LC001       CIRCULAR     0          0          0          0          1

  
  ERROR 211: invalid number  at line 959 of [XSECT] section:
  LC120LC133       CIRCULAR     0          0          0          0          1

  
  ERROR 211: invalid number  at line 960 of [XSECT] section:
  LC123LC004       CIRCULAR     0          0          0          0          1

  
  ERROR 211: invalid number  at line 961 of [XSECT] section:
  LC123LC125       CIRCULAR     0          0          0          0          1

  
  ERROR 211: invalid number  at line 962 of [XSECT] section:
  LC127LC123       CIRCULAR     0          0          0          0          1

  
  ERROR 211: invalid number  at line 996 of [XSECT] section:
  LC175LC164       CIRCULAR     0          0          0          0          1

  
  ERROR 211: invalid number  at line 1002 of [XSECT] section:
  LC186LC176       CIRCULAR     0          0          0          0          1

  
  ERROR 211: invalid number  at line 1012 of [XSECT] section:
  LC225LC123       CIRCULAR     0          0          0          0          1

  
  ERROR 211: invalid number  at line 1024 of [XSECT] section:
  LC245LC247       CIRCULAR     0          0          0          0          1

  
  ERROR 211: invalid number  at line 1025 of [XSECT] section:
  LC246LC125       CIRCULAR     0          0          0          0          1

  
  ERROR 211: invalid number  at line 1029 of [XSECT] section:
  LC250LC249       CIRCULAR     0          0          0          0          1

  
  ERROR 211: invalid number  at line 1030 of [XSECT] section:
  LC251LC250       CIRCULAR     0          0          0          0          1

  
  ERROR 211: invalid number  at line 1034 of [XSECT] section:
  LC256LC254       CIRCULAR     0          0          0          0          1

  
  ERROR 211: invalid number  at line 1035 of [XSECT] section:
  LC266LC251       CIRCULAR     0          0          0          0          1

  
  ERROR 211: invalid number  at line 1037 of [XSECT] section:
  LC268LC251       CIRCULAR     0          0          0          0          1

  
  ERROR 211: invalid number  at line 1045 of [XSECT] section:
  LC276LC256       CIRCULAR     0          0          0          0          1

  
  ERROR 211: invalid number  at line 1077 of [XSECT] section:
  LC328LC324       CIRCULAR     0          0          0          0          1

  
  ERROR 211: invalid number  at line 1081 of [XSECT] section:
  LC331LC361       CIRCULAR     0          0          0          0          1

  
  ERROR 211: invalid number  at line 1082 of [XSECT] section:
  LC333LC345       CIRCULAR     0          0          0          0          1

  
  ERROR 211: invalid number  at line 1089 of [XSECT] section:
  LC340LC345       CIRCULAR     0          0          0          0          1

  
  ERROR 211: invalid number  at line 1093 of [XSECT] section:
  LC345LC331       CIRCULAR     0          0          0          0          1

  
  ERROR 211: invalid number  at line 1119 of [XSECT] section:
  LC380LC704       CIRCULAR     0          0          0          0          1

  
  ERROR 211: invalid number  at line 1125 of [XSECT] section:
  LC386LC385       CIRCULAR     0          0          0          0          1

  
  ERROR 211: invalid number  at line 1126 of [XSECT] section:
  LC387LC386       CIRCULAR     0          0          0          0          1

  
  ERROR 211: invalid number  at line 1185 of [XSECT] section:
  LC706LC380       CIRCULAR     0          0          0          0          1

  
  ERROR 211: invalid number  at line 1191 of [XSECT] section:
  LC712LC711       CIRCULAR     0          0          0          0          1

  
  ERROR 211: invalid number  at line 1194 of [XSECT] section:
  LC715LC714       CIRCULAR     0          0          0          0          1

  
  ERROR 211: invalid number  at line 1195 of [XSECT] section:
  LC716LC715       CIRCULAR     0          0          0          0          1

  
  ERROR 211: invalid number  at line 1227 of [XSECT] section:
  LC801LC780       CIRCULAR     0          0          0          0          1

  
  ERROR 211: invalid number  at line 1229 of [XSECT] section:
  LC810LC801       CIRCULAR     0          0          0          0          1

  
  ERROR 211: invalid number  at line 1237 of [XSECT] section:
  LC820LC815       CIRCULAR     0          0          0          0          1

  
  ERROR 211: invalid number  at line 1241 of [XSECT] section:
  LC827LC826       CIRCULAR     0          0          0          0          1

  
  ERROR 211: invalid number  at line 1280 of [XSECT] section:
  LC936LC922       CIRCULAR     0          0          0          0          1

  
  ERROR 211: invalid number  at line 1295 of [XSECT] section:
  LC965LC922       CIRCULAR     0          0          0          0          1


  Analysis begun on:  Sat Mar  7 21:51:27 2026
  Analysis ended on:  Sat Mar  7 21:51:27 2026
  Total elapsed time: < 1 sec