
  EPA STORM WATER MANAGEMENT MODEL - VERSION 5.2 (Build 5.2.4)
  ------------------------------------------------------------

  
  ERROR 207: duplicate ID name 8119 at line 2532 of [PUMP] section:
  8119             S116             J116             PC_8119    ON       -0.08      -0.92     

  
  ERROR 207: duplicate ID name 8553 at line 2750 of [PUMP] section:
  8553             Node_8699        Node_22762113    PC_8553    ON       -8.60      -11.60    

  
  ERROR 207: duplicate ID name 8885 at line 2800 of [PUMP] section:
  8885             Node_8855        Node_27092710    PC_8885    ON       -3.59      -5.59     


  Analysis begun on:  Sat Mar  7 21:51:24 2026
  Analysis ended on:  Sat Mar  7 21:51:24 2026
  Total elapsed time: < 1 sec