
  EPA STORM WATER MANAGEMENT MODEL - VERSION 5.2 (Build 5.2.4)
  ------------------------------------------------------------

  
  ERROR 209: undefined object 0 at line 130 of [XSECT] section:
  3840038350       IRREGULAR    0          0          0          0          1

  
  ERROR 209: undefined object 0 at line 131 of [XSECT] section:
  3835038300       IRREGULAR    0          0          0          0          1

  
  ERROR 209: undefined object 0 at line 132 of [XSECT] section:
  3830038250       IRREGULAR    0          0          0          0          1

  
  ERROR 209: undefined object 0 at line 133 of [XSECT] section:
  3820038150       IRREGULAR    0          0          0          0          1

  
  ERROR 209: undefined object 0 at line 134 of [XSECT] section:
  3815038100       IRREGULAR    0          0          0          0          1

  
  ERROR 209: undefined object 0 at line 135 of [XSECT] section:
  3810038050       IRREGULAR    0          0          0          0          1

  
  ERROR 209: undefined object 0 at line 136 of [XSECT] section:
  3805038000       IRREGULAR    0          0          0          0          1

  
  ERROR 209: undefined object 0 at line 138 of [XSECT] section:
  3690036850       IRREGULAR    0          0          0          0          1

  
  ERROR 209: undefined object 0 at line 139 of [XSECT] section:
  3685036800       IRREGULAR    0          0          0          0          1

  
  ERROR 209: undefined object 0 at line 140 of [XSECT] section:
  3680036750       IRREGULAR    0          0          0          0          1

  
  ERROR 209: undefined object 0 at line 141 of [XSECT] section:
  3675036700       IRREGULAR    0          0          0          0          1

  
  ERROR 209: undefined object 0 at line 142 of [XSECT] section:
  3670036650       IRREGULAR    0          0          0          0          1

  
  ERROR 209: undefined object 0 at line 143 of [XSECT] section:
  3665036600       IRREGULAR    0          0          0          0          1

  
  ERROR 209: undefined object 0 at line 144 of [XSECT] section:
  3725037200       IRREGULAR    0          0          0          0          1

  
  ERROR 209: undefined object 0 at line 145 of [XSECT] section:
  3720037150       IRREGULAR    0          0          0          0          1

  
  ERROR 209: undefined object 0 at line 146 of [XSECT] section:
  3715037100       IRREGULAR    0          0          0          0          1

  
  ERROR 209: undefined object 0 at line 147 of [XSECT] section:
  3710037050       IRREGULAR    0          0          0          0          1

  
  ERROR 209: undefined object 0 at line 148 of [XSECT] section:
  3705037000       IRREGULAR    0          0          0          0          1

  
  ERROR 209: undefined object 0 at line 149 of [XSECT] section:
  3985039800       IRREGULAR    0          0          0          0          1

  
  ERROR 209: undefined object 0 at line 150 of [XSECT] section:
  3980039750       IRREGULAR    0          0          0          0          1

  
  ERROR 209: undefined object 0 at line 151 of [XSECT] section:
  3970039650       IRREGULAR    0          0          0          0          1

  
  ERROR 209: undefined object 0 at line 152 of [XSECT] section:
  3965039600       IRREGULAR    0          0          0          0          1

  
  ERROR 209: undefined object 0 at line 153 of [XSECT] section:
  3960039550       IRREGULAR    0          0          0          0          1

  
  ERROR 209: undefined object 0 at line 154 of [XSECT] section:
  3955039500       IRREGULAR    0          0          0          0          1

  
  ERROR 209: undefined object 0 at line 155 of [XSECT] section:
  3950039450       IRREGULAR    0          0          0          0          1

  
  ERROR 209: undefined object 0 at line 156 of [XSECT] section:
  3945039400       IRREGULAR    0          0          0          0          1

  
  ERROR 209: undefined object 0 at line 157 of [XSECT] section:
  3940039350       IRREGULAR    0          0          0          0          1

  
  ERROR 209: undefined object 0 at line 158 of [XSECT] section:
  3935039300       IRREGULAR    0          0          0          0          1

  
  ERROR 209: undefined object 0 at line 160 of [XSECT] section:
  3925039200       IRREGULAR    0          0          0          0          1

  
  ERROR 209: undefined object 0 at line 161 of [XSECT] section:
  3920039150       IRREGULAR    0          0          0          0          1

  
  ERROR 209: undefined object 0 at line 162 of [XSECT] section:
  3912539100       IRREGULAR    0          0          0          0          1

  
  ERROR 209: undefined object 0 at line 163 of [XSECT] section:
  3910039050       IRREGULAR    0          0          0          0          1

  
  ERROR 209: undefined object 0 at line 164 of [XSECT] section:
  3905039000       IRREGULAR    0          0          0          0          1

  
  ERROR 209: undefined object 0 at line 165 of [XSECT] section:
  3900036600       IRREGULAR    0          0          0          0          1

  
  ERROR 209: undefined object 0 at line 166 of [XSECT] section:
  3660036550       IRREGULAR    0          0          0          0          1

  
  ERROR 209: undefined object 0 at line 167 of [XSECT] section:
  3655036500       IRREGULAR    0          0          0          0          1

  
  ERROR 209: undefined object 0 at line 168 of [XSECT] section:
  3915039125       IRREGULAR    0          0          0          0          1

  
  ERROR 209: undefined object 0 at line 172 of [XSECT] section:
  308              IRREGULAR    0          0          0          0          1

  
  ERROR 209: undefined object 0 at line 174 of [XSECT] section:
  314              IRREGULAR    0          0          0          0          1

  
  ERROR 209: undefined object 0 at line 175 of [XSECT] section:
  325              IRREGULAR    0          0          0          0          1

  
  ERROR 209: undefined object 0 at line 176 of [XSECT] section:
  326              IRREGULAR    0          0          0          0          1


  Analysis begun on:  Sat Mar  7 21:51:34 2026
  Analysis ended on:  Sat Mar  7 21:51:34 2026
  Total elapsed time: < 1 sec