
  EPA STORM WATER MANAGEMENT MODEL - VERSION 5.2 (Build 5.2.4)
  ------------------------------------------------------------

  
  ERROR 211: invalid number  at line 42 of [XSECT] section:
  5                CIRCULAR     0          0          0          0          1

  
  ERROR 211: invalid number  at line 43 of [XSECT] section:
  7                CIRCULAR     0          0          0          0          1

  
  ERROR 211: invalid number  at line 44 of [XSECT] section:
  box              RECT_OPEN    0          200.00     0          0          


  Analysis begun on:  Sat Mar  7 21:51:27 2026
  Analysis ended on:  Sat Mar  7 21:51:27 2026
  Total elapsed time: < 1 sec