
  EPA STORM WATER MANAGEMENT MODEL - VERSION 5.2 (Build 5.2.4)
  ------------------------------------------------------------

  
  ERROR 209: undefined object ? at line 45 of [CONDUIT] section:
  Link_210         ?                ?                10.88      0.0130     88.50      88.39      0          0

  
  ERROR 209: undefined object ? at line 46 of [CONDUIT] section:
  Link_211         ?                ?                7.16       0.0130     86.56      86.39      0          0

  
  ERROR 209: undefined object ? at line 59 of [WEIR] section:
  aq               ?                ?                TRANSVERSE 88.63      1.840      NO       0        0          YES

  
  ERROR 211: invalid number  at line 74 of [XSECT] section:
  aq               RECT_OPEN    0          1.06       0          0          


  Analysis begun on:  Sat Mar  7 21:51:22 2026
  Analysis ended on:  Sat Mar  7 21:51:22 2026
  Total elapsed time: < 1 sec