
  EPA STORM WATER MANAGEMENT MODEL - VERSION 5.2 (Build 5.2.4)
  ------------------------------------------------------------

  
  ERROR 209: undefined object trap at line 47 of [CONDUIT] section:
  sub              trap             2                100.00     0.0140     100.00     99.00      0          0

  
  ERROR 209: undefined object trapb at line 49 of [CONDUIT] section:
  subb             trapb            2b               100.00     0.0140     100.00     99.00      0          0

  
  ERROR 209: undefined object trapa at line 56 of [PUMP] section:
  suba             trapa            2a               PC_suba    ON       0          0         


  Analysis begun on:  Sat Mar  7 21:51:25 2026
  Analysis ended on:  Sat Mar  7 21:51:25 2026
  Total elapsed time: < 1 sec