
  EPA STORM WATER MANAGEMENT MODEL - VERSION 5.2 (Build 5.2.4)
  ------------------------------------------------------------

  
  ERROR 209: undefined object 2910 at line 967 of [CONDUIT] section:
  2913             2910             2815             100.00     0.0140     0          0          0          0

  
  ERROR 209: undefined object Node_1503 at line 1088 of [CONDUIT] section:
  1503             Node_1503        Node_10011003    570.00     0.0140     583.00     581.00     0          0

  
  ERROR 209: undefined object Node_1504 at line 1089 of [CONDUIT] section:
  1504             Node_1504        Node_10031005    1250.00    0.0140     581.00     577.00     0          0

  
  ERROR 209: undefined object Node_1505 at line 1090 of [CONDUIT] section:
  1505             Node_1505        Node_10051007    1540.00    0.0140     577.00     573.18     0          0

  
  ERROR 209: undefined object Node_1506 at line 1091 of [CONDUIT] section:
  1506             Node_1506        Node_10091010    310.00     0.0140     586.50     585.81     0          0

  
  ERROR 209: undefined object Node_1507 at line 1092 of [CONDUIT] section:
  1507             Node_1507        Node_10101012    1340.00    0.0140     585.81     584.00     0          0

  
  ERROR 209: undefined object Node_1508 at line 1093 of [CONDUIT] section:
  1508             Node_1508        Node_10141012    300.00     0.0140     586.72     584.00     0          0

  
  ERROR 209: undefined object Node_1509 at line 1094 of [CONDUIT] section:
  1509             Node_1509        Node_10121016    1290.00    0.0140     584.00     580.20     0          0

  
  ERROR 209: undefined object Node_1512 at line 1095 of [CONDUIT] section:
  1512             Node_1512        Node_10161018    440.00     0.0140     580.20     579.70     0          0

  
  ERROR 209: undefined object Node_1513 at line 1096 of [CONDUIT] section:
  1513             Node_1513        Node_10181020    540.00     0.0140     579.70     579.28     0          0

  
  ERROR 209: undefined object Node_1516 at line 1097 of [CONDUIT] section:
  1516             Node_1516        Node_10201022    610.00     0.0140     579.28     577.00     0          0

  
  ERROR 209: undefined object Node_1514 at line 1098 of [CONDUIT] section:
  1514             Node_1514        Node_10221007    840.00     0.0140     577.00     573.18     0          0

  
  ERROR 209: undefined object Node_1515 at line 1099 of [CONDUIT] section:
  1515             Node_1515        Node_10071025    900.00     0.0140     573.18     572.59     0          0

  
  ERROR 209: undefined object Node_1517 at line 1100 of [CONDUIT] section:
  1517             Node_1517        Node_10251027    250.00     0.0140     572.59     570.65     0          0

  
  ERROR 209: undefined object Node_1919 at line 1102 of [CONDUIT] section:
  1919             Node_1919        Node_10301031    2000.00    0.0140     579.75     578.00     0          0

  
  ERROR 209: undefined object Node_4301 at line 1103 of [CONDUIT] section:
  4301             Node_4301        Node_10331034    1800.00    0.0140     599.83     583.06     0          0

  
  ERROR 209: undefined object Node_4302 at line 1104 of [CONDUIT] section:
  4302             Node_4302        Node_10341036    300.00     0.0140     583.06     582.70     0          0

  
  ERROR 209: undefined object Node_4303 at line 1105 of [CONDUIT] section:
  4303             Node_4303        Node_10361038    300.00     0.0140     582.70     582.14     0          0

  
  ERROR 209: undefined object Node_4304 at line 1106 of [CONDUIT] section:
  4304             Node_4304        Node_10381040    2500.00    0.0140     582.14     576.10     0          0

  
  ERROR 209: undefined object Node_4322 at line 1107 of [CONDUIT] section:
  4322             Node_4322        Node_1042992     1480.00    0.0140     583.71     582.00     0          0

  
  ERROR 209: undefined object Node_4505 at line 1108 of [CONDUIT] section:
  4505             Node_4505        Node_10441045    100.00     0.0140     582.10     581.44     0          0

  
  ERROR 209: undefined object Node_4905 at line 1109 of [CONDUIT] section:
  4905             Node_4905        Node_10451047    100.00     0.0140     590.94     580.00     0          0

  
  ERROR 209: undefined object Node_4906 at line 1110 of [CONDUIT] section:
  4906             Node_4906        Node_10491050    100.00     0.0140     587.44     580.00     0          0

  
  ERROR 209: undefined object Node_3300 at line 1111 of [CONDUIT] section:
  3300             Node_3300        Node_10521053    2100.00    0.0140     587.00     585.42     0          0

  
  ERROR 209: undefined object Node_3301 at line 1112 of [CONDUIT] section:
  3301             Node_3301        Node_10531055    1400.00    0.0140     585.42     583.96     0          0

  
  ERROR 209: undefined object Node_3302 at line 1113 of [CONDUIT] section:
  3302             Node_3302        Node_10571058    2700.00    0.0140     585.41     583.65     0          0

  
  ERROR 209: undefined object Node_3320 at line 1114 of [CONDUIT] section:
  3320             Node_3320        Node_10571053    100.00     0.0140     586.56     585.62     0          0

  
  ERROR 209: undefined object Node_3303 at line 1115 of [CONDUIT] section:
  3303             Node_3303        Node_10611058    2200.00    0.0140     585.00     584.15     0          0

  
  ERROR 209: undefined object Node_3304 at line 1116 of [CONDUIT] section:
  3304             Node_3304        Node_10581063    2900.00    0.0140     583.65     582.27     0          0

  
  ERROR 209: undefined object Node_3305 at line 1117 of [CONDUIT] section:
  3305             Node_3305        Node_10551065    4000.00    0.0140     583.96     582.50     0          0

  
  ERROR 209: undefined object Node_3306 at line 1118 of [CONDUIT] section:
  3306             Node_3306        Node_10651063    200.00     0.0140     582.50     582.27     0          0

  
  ERROR 209: undefined object Node_3308 at line 1119 of [CONDUIT] section:
  3308             Node_3308        Node_10681069    1600.00    0.0140     586.83     585.26     0          0

  
  ERROR 209: undefined object Node_3309 at line 1120 of [CONDUIT] section:
  3309             Node_3309        Node_10691071    2200.00    0.0140     583.91     583.35     0          0

  
  ERROR 209: undefined object Node_3310 at line 1121 of [CONDUIT] section:
  3310             Node_3310        Node_10731069    900.00     0.0140     586.12     583.91     0          0

  
  ERROR 209: undefined object Node_3311 at line 1122 of [CONDUIT] section:
  3311             Node_3311        Node_10711075    500.00     0.0140     582.00     581.14     0          0

  
  ERROR 209: undefined object Node_3312 at line 1123 of [CONDUIT] section:
  3312             Node_3312        Node_10751077    100.00     0.0140     581.14     580.99     0          0

  
  ERROR 209: undefined object Node_3313 at line 1124 of [CONDUIT] section:
  3313             Node_3313        Node_10791080    100.00     0.0140     582.27     581.25     0          0

  
  ERROR 209: undefined object Node_3307 at line 1125 of [CONDUIT] section:
  3307             Node_3307        Node_10791082    100.00     0.0140     582.49     582.49     0          0

  
  ERROR 209: undefined object Node_3314 at line 1126 of [CONDUIT] section:
  3314             Node_3314        Node_10801082    100.00     0.0140     582.49     582.49     0          0

  
  ERROR 209: undefined object Node_3315 at line 1127 of [CONDUIT] section:
  3315             Node_3315        Node_10801077    100.00     0.0140     581.25     580.99     0          0

  
  ERROR 209: undefined object Node_3512 at line 1128 of [CONDUIT] section:
  3512             Node_3512        Node_10861087    100.00     0.0140     581.00     580.60     0          0

  
  ERROR 209: undefined object Node_3516 at line 1129 of [CONDUIT] section:
  3516             Node_3516        Node_10891087    100.00     0.0140     580.80     580.60     0          0

  
  ERROR 209: undefined object Node_3901 at line 1130 of [CONDUIT] section:
  3901             Node_3901        Node_10911092    1200.00    0.0140     592.12     587.70     0          0

  
  ERROR 209: undefined object Node_3902 at line 1131 of [CONDUIT] section:
  3902             Node_3902        Node_10911094    1200.00    0.0140     592.12     587.70     0          0

  
  ERROR 209: undefined object Node_3317 at line 1132 of [CONDUIT] section:
  3317             Node_3317        Node_10771096    2600.00    0.0140     580.99     578.64     0          0

  
  ERROR 209: undefined object Node_3321 at line 1133 of [CONDUIT] section:
  3321             Node_3321        Node_10961098    1000.00    0.0140     578.64     578.34     0          0

  
  ERROR 209: undefined object Node_3323 at line 1134 of [CONDUIT] section:
  3323             Node_3323        Node_1098994     1200.00    0.0140     578.34     577.70     0          0

  
  ERROR 209: undefined object Node_3326 at line 1136 of [CONDUIT] section:
  3326             Node_3326        Node_11011103    700.00     0.0140     578.29     577.09     0          0

  
  ERROR 209: undefined object Node_3330 at line 1137 of [CONDUIT] section:
  3330             Node_3330        Node_11031105    580.00     0.0140     576.39     576.31     0          0

  
  ERROR 209: undefined object Node_3332 at line 1138 of [CONDUIT] section:
  3332             Node_3332        Node_11051040    140.00     0.0140     576.31     576.10     0          0

  
  ERROR 209: undefined object Node_4321 at line 1139 of [CONDUIT] section:
  4321             Node_4321        Node_10401108    720.00     0.0140     576.10     575.99     0          0

  
  ERROR 209: undefined object Node_3334 at line 1140 of [CONDUIT] section:
  3334             Node_3334        Node_11081110    1100.00    0.0140     575.99     575.05     0          0

  
  ERROR 209: undefined object Node_9333 at line 1141 of [CONDUIT] section:
  9333             Node_9333        Node_1110803     1900.00    0.0140     575.05     573.53     0          0

  
  ERROR 209: undefined object Node_3316 at line 1143 of [CONDUIT] section:
  3316             Node_3316        Node_10821115    2520.00    0.0140     582.49     577.86     0          0

  
  ERROR 209: undefined object Node_3322 at line 1144 of [CONDUIT] section:
  3322             Node_3322        Node_11151117    2610.00    0.0140     577.86     577.63     0          0

  
  ERROR 209: undefined object Node_3324 at line 1145 of [CONDUIT] section:
  3324             Node_3324        Node_11171101    160.00     0.0140     577.63     577.54     0          0

  
  ERROR 209: undefined object Node_3331 at line 1146 of [CONDUIT] section:
  3331             Node_3331        Node_11011120    100.00     0.0140     577.54     577.33     0          0

  
  ERROR 209: undefined object Node_3329 at line 1147 of [CONDUIT] section:
  3329             Node_3329        Node_11201122    200.00     0.0140     577.33     575.99     0          0

  
  ERROR 209: undefined object Node_3328 at line 1148 of [CONDUIT] section:
  3328             Node_3328        Node_11221124    1900.00    0.0140     575.99     574.87     0          0

  
  ERROR 209: undefined object Node_3333 at line 1149 of [CONDUIT] section:
  3333             Node_3333        Node_11241126    3200.00    0.0140     574.87     574.87     0          0

  
  ERROR 209: undefined object Node_3335 at line 1150 of [CONDUIT] section:
  3335             Node_3335        Node_11261128    100.00     0.0140     574.87     573.30     0          0

  
  ERROR 209: undefined object Node_9303 at line 1151 of [CONDUIT] section:
  9303             Node_9303        Node_11301131    575.00     0.0140     589.81     588.96     0          0

  
  ERROR 209: undefined object Node_9315 at line 1152 of [CONDUIT] section:
  9315             Node_9315        Node_11311133    1675.00    0.0140     588.96     586.45     0          0

  
  ERROR 209: undefined object Node_9304 at line 1153 of [CONDUIT] section:
  9304             Node_9304        Node_11331135    1062.00    0.0140     586.45     584.95     0          0

  
  ERROR 209: undefined object Node_9305 at line 1154 of [CONDUIT] section:
  9305             Node_9305        Node_11351137    580.00     0.0140     584.95     584.03     0          0

  
  ERROR 209: undefined object Node_9306 at line 1155 of [CONDUIT] section:
  9306             Node_9306        Node_11391140    975.00     0.0140     587.72     586.13     0          0

  
  ERROR 209: undefined object Node_9307 at line 1156 of [CONDUIT] section:
  9307             Node_9307        Node_11401142    1000.00    0.0140     586.13     584.90     0          0

  
  ERROR 209: undefined object Node_9308 at line 1157 of [CONDUIT] section:
  9308             Node_9308        Node_11421137    575.00     0.0140     584.90     584.03     0          0

  
  ERROR 209: undefined object Node_9309 at line 1158 of [CONDUIT] section:
  9309             Node_9309        Node_11371145    1275.00    0.0140     584.03     583.00     0          0

  
  ERROR 209: undefined object Node_9310 at line 1159 of [CONDUIT] section:
  9310             Node_9310        Node_11451147    625.00     0.0140     581.70     581.38     0          0

  
  ERROR 209: undefined object Node_9317 at line 1160 of [CONDUIT] section:
  9317             Node_9317        Node_11471149    425.00     0.0140     580.49     580.27     0          0

  
  ERROR 209: undefined object Node_9311 at line 1161 of [CONDUIT] section:
  9311             Node_9311        Node_11511149    660.00     0.0140     589.91     580.27     0          0

  
  ERROR 209: undefined object Node_9312 at line 1162 of [CONDUIT] section:
  9312             Node_9312        Node_11491153    300.00     0.0140     580.27     580.12     0          0

  
  ERROR 209: undefined object Node_9302 at line 1163 of [CONDUIT] section:
  9302             Node_9302        Node_11551156    700.00     0.0140     581.13     580.04     0          0

  
  ERROR 209: undefined object Node_9300 at line 1164 of [CONDUIT] section:
  9300             Node_9300        Node_11581156    100.00     0.0140     587.92     580.04     0          0

  
  ERROR 209: undefined object Node_9398 at line 1165 of [CONDUIT] section:
  9398             Node_9398        Node_11601158    200.00     0.0140     587.92     587.92     0          0

  
  ERROR 209: undefined object Node_9319 at line 1166 of [CONDUIT] section:
  9319             Node_9319        Node_11561153    575.00     0.0140     580.04     579.54     0          0

  
  ERROR 209: undefined object Node_9318 at line 1167 of [CONDUIT] section:
  9318             Node_9318        Node_11531110    100.00     0.0140     579.54     579.45     0          0

  
  ERROR 209: undefined object Node_9399 at line 1168 of [CONDUIT] section:
  9399             Node_9399        Node_11641155    200.00     0.0140     582.13     581.13     0          0

  
  ERROR 209: undefined object Node_9518 at line 1169 of [CONDUIT] section:
  9518             Node_9518        Node_11661167    500.00     0.0140     579.53     579.22     0          0

  
  ERROR 209: undefined object Node_9501 at line 1170 of [CONDUIT] section:
  9501             Node_9501        Node_11691170    100.00     0.0140     575.53     572.32     0          0

  
  ERROR 209: undefined object Node_9502 at line 1171 of [CONDUIT] section:
  9502             Node_9502        Node_11671172    700.00     0.0140     577.22     577.05     0          0

  
  ERROR 209: undefined object Node_9503 at line 1172 of [CONDUIT] section:
  9503             Node_9503        Node_11721169    400.00     0.0140     577.05     575.53     0          0

  
  ERROR 209: undefined object Node_9504 at line 1173 of [CONDUIT] section:
  9504             Node_9504        Node_11751172    100.00     0.0140     580.13     577.05     0          0

  
  ERROR 209: undefined object Node_9500 at line 1174 of [CONDUIT] section:
  9500             Node_9500        Node_11771167    100.00     0.0140     586.92     577.22     0          0

  
  ERROR 209: undefined object Node_9599 at line 1175 of [CONDUIT] section:
  9599             Node_9599        Node_11551175    100.00     0.0140     582.56     580.13     0          0

  
  ERROR 209: undefined object Node_9598 at line 1176 of [CONDUIT] section:
  9598             Node_9598        Node_11581177    100.00     0.0140     588.85     586.92     0          0

  
  ERROR 209: undefined object Node_9590 at line 1177 of [CONDUIT] section:
  9590             Node_9590        Node_11531166    100.00     0.0140     582.04     582.03     0          0

  
  ERROR 209: undefined object Node_9971 at line 1178 of [CONDUIT] section:
  9971             Node_9971        Node_11701182    100.00     0.0140     572.32     572.00     0          0

  
  ERROR 209: undefined object Node_9991 at line 1179 of [CONDUIT] section:
  9991             Node_9991        Node_11701184    100.00     0.0140     573.15     573.15     0          0

  
  ERROR 209: undefined object Node_9974 at line 1180 of [CONDUIT] section:
  9974             Node_9974        Node_11861187    100.00     0.0140     588.82     588.49     0          0

  
  ERROR 209: undefined object Node_9975 at line 1181 of [CONDUIT] section:
  9975             Node_9975        Node_11891190    100.00     0.0140     588.82     586.82     0          0

  
  ERROR 209: undefined object Node_9901 at line 1182 of [CONDUIT] section:
  9901             Node_9901        Node_11701192    100.00     0.0140     588.82     588.35     0          0

  
  ERROR 209: undefined object Node_8360 at line 1183 of [CONDUIT] section:
  8360             Node_8360        Node_11131128    100.00     0.0140     573.50     573.30     0          0

  
  ERROR 209: undefined object Node_5350 at line 1184 of [CONDUIT] section:
  5350             Node_5350        Node_11951196    1500.00    0.0140     615.00     611.10     0          0

  
  ERROR 209: undefined object Node_5351 at line 1185 of [CONDUIT] section:
  5351             Node_5351        Node_11961198    1100.00    0.0140     611.10     595.00     0          0

  
  ERROR 209: undefined object Node_5353 at line 1186 of [CONDUIT] section:
  5353             Node_5353        Node_11981200    250.00     0.0140     595.00     594.00     0          0

  
  ERROR 209: undefined object Node_5354 at line 1187 of [CONDUIT] section:
  5354             Node_5354        Node_12001202    250.00     0.0140     594.00     593.00     0          0

  
  ERROR 209: undefined object Node_5355 at line 1188 of [CONDUIT] section:
  5355             Node_5355        Node_12021204    600.00     0.0140     593.00     590.05     0          0

  
  ERROR 209: undefined object Node_5357 at line 1189 of [CONDUIT] section:
  5357             Node_5357        Node_12041206    1300.00    0.0140     590.05     588.74     0          0

  
  Maximum error count exceeded.

  Analysis begun on:  Sat Mar  7 21:51:26 2026
  Analysis ended on:  Sat Mar  7 21:51:26 2026
  Total elapsed time: < 1 sec