
  EPA STORM WATER MANAGEMENT MODEL - VERSION 5.2 (Build 5.2.4)
  ------------------------------------------------------------

  
  ERROR 207: duplicate ID name 0 at line 26 of [JUNC] section:
  0                99.00      0          0          0          0

  
  ERROR 207: duplicate ID name 0 at line 27 of [JUNC] section:
  0                98.50      0          0          0          0

  
  ERROR 207: duplicate ID name 0 at line 28 of [JUNC] section:
  0                98.00      0          0          0          0

  
  ERROR 207: duplicate ID name 0 at line 29 of [JUNC] section:
  0                98.00      0          0          0          0

  
  ERROR 207: duplicate ID name 0 at line 30 of [JUNC] section:
  0                100.00     0          0          0          0

  
  ERROR 207: duplicate ID name 0 at line 31 of [JUNC] section:
  0                99.00      0          0          0          0

  
  ERROR 207: duplicate ID name 0 at line 32 of [JUNC] section:
  0                98.50      0          0          0          0

  
  ERROR 207: duplicate ID name 0 at line 33 of [JUNC] section:
  0                98.00      0          0          0          0

  
  ERROR 207: duplicate ID name 0 at line 34 of [JUNC] section:
  0                98.00      0          0          0          0

  
  ERROR 207: duplicate ID name pipe1 at line 40 of [CONDUIT] section:
  pipe1            street1          0                100.00     0.0130     98.75      98.25      0          0

  
  ERROR 207: duplicate ID name pipe1 at line 41 of [CONDUIT] section:
  pipe1            street1          0                100.00     0.0130     98.25      97.75      0          0

  
  ERROR 207: duplicate ID name pipe1 at line 42 of [CONDUIT] section:
  pipe1            street1          0                100.00     0.0130     97.75      97.75      0          0


  Analysis begun on:  Sat Mar  7 21:51:29 2026
  Analysis ended on:  Sat Mar  7 21:51:29 2026
  Total elapsed time: < 1 sec