
  EPA STORM WATER MANAGEMENT MODEL - VERSION 5.2 (Build 5.2.4)
  ------------------------------------------------------------

  
  ERROR 207: duplicate ID name U at line 32 of [CONDUIT] section:
  U                PP47             PP44             0          0          0          0          0          0

  
  ERROR 207: duplicate ID name U at line 33 of [CONDUIT] section:
  U                PP48             PP47             0          0          0          0          0          0


  Analysis begun on:  Sat Mar  7 21:51:24 2026
  Analysis ended on:  Sat Mar  7 21:51:24 2026
  Total elapsed time: < 1 sec