
  EPA STORM WATER MANAGEMENT MODEL - VERSION 5.2 (Build 5.2.4)
  ------------------------------------------------------------

  
  ERROR 207: duplicate ID name 0 at line 28 of [JUNC] section:
  0                92.75      0          0          0          0

  
  ERROR 207: duplicate ID name 0 at line 29 of [JUNC] section:
  0                92.20      0          0          0          0

  
  ERROR 207: duplicate ID name 0 at line 30 of [JUNC] section:
  0                92.00      0          0          0          0

  
  ERROR 207: duplicate ID name 0 at line 31 of [JUNC] section:
  0                91.59      0          0          0          0

  
  ERROR 207: duplicate ID name 0 at line 32 of [JUNC] section:
  0                91.25      0          0          0          0

  
  ERROR 207: duplicate ID name 0 at line 33 of [JUNC] section:
  0                91.15      0          0          0          0

  
  ERROR 207: duplicate ID name 0 at line 34 of [JUNC] section:
  0                90.45      0          0          0          0

  
  ERROR 207: duplicate ID name 0 at line 35 of [JUNC] section:
  0                88.00      0          0          0          0

  
  ERROR 207: duplicate ID name 0 at line 36 of [JUNC] section:
  0                92.70      0          0          0          0

  
  ERROR 207: duplicate ID name 0 at line 37 of [JUNC] section:
  0                92.85      0          0          0          0

  
  ERROR 207: duplicate ID name 0 at line 38 of [JUNC] section:
  0                92.50      0          0          0          0

  
  ERROR 207: duplicate ID name 0 at line 39 of [JUNC] section:
  0                92.15      0          0          0          0

  
  ERROR 207: duplicate ID name 0 at line 40 of [JUNC] section:
  0                91.73      0          0          0          0

  
  ERROR 207: duplicate ID name 0 at line 41 of [JUNC] section:
  0                91.60      0          0          0          0

  
  ERROR 207: duplicate ID name 0 at line 42 of [JUNC] section:
  0                91.25      0          0          0          0

  
  ERROR 207: duplicate ID name 0 at line 43 of [JUNC] section:
  0                91.17      0          0          0          0

  
  ERROR 207: duplicate ID name 0 at line 44 of [JUNC] section:
  0                90.91      0          0          0          0

  
  ERROR 207: duplicate ID name 0 at line 45 of [JUNC] section:
  0                90.77      0          0          0          0

  
  ERROR 207: duplicate ID name 0 at line 46 of [JUNC] section:
  0                91.04      0          0          0          0

  
  ERROR 207: duplicate ID name 0 at line 47 of [JUNC] section:
  0                90.80      0          0          0          0

  
  ERROR 207: duplicate ID name 0 at line 48 of [JUNC] section:
  0                90.71      0          0          0          0

  
  ERROR 207: duplicate ID name 0 at line 49 of [JUNC] section:
  0                90.29      0          0          0          0

  
  ERROR 207: duplicate ID name 0 at line 50 of [JUNC] section:
  0                89.70      0          0          0          0

  
  ERROR 207: duplicate ID name 0 at line 51 of [JUNC] section:
  0                89.00      0          0          0          0

  
  ERROR 207: duplicate ID name 0 at line 52 of [JUNC] section:
  0                89.00      0          0          0          0

  
  ERROR 207: duplicate ID name 0 at line 53 of [JUNC] section:
  0                93.00      0          0          0          0

  
  ERROR 207: duplicate ID name 0 at line 54 of [JUNC] section:
  0                96.00      0          0          0          0

  
  ERROR 207: duplicate ID name 0 at line 55 of [JUNC] section:
  0                93.00      0          0          0          0

  
  ERROR 207: duplicate ID name 0 at line 56 of [JUNC] section:
  0                91.30      0          0          0          0

  
  ERROR 207: duplicate ID name 0 at line 57 of [JUNC] section:
  0                91.50      0          0          0          0

  
  ERROR 207: duplicate ID name 0 at line 58 of [JUNC] section:
  0                91.20      0          0          0          0

  
  ERROR 207: duplicate ID name 0 at line 59 of [JUNC] section:
  0                91.00      0          0          0          0

  
  ERROR 207: duplicate ID name 0 at line 60 of [JUNC] section:
  0                90.90      0          0          0          0

  
  ERROR 207: duplicate ID name 0 at line 61 of [JUNC] section:
  0                90.00      0          0          0          0

  
  ERROR 207: duplicate ID name 0 at line 62 of [JUNC] section:
  0                90.00      0          0          0          0

  
  ERROR 207: duplicate ID name 0 at line 63 of [JUNC] section:
  0                90.98      0          0          0          0

  
  ERROR 207: duplicate ID name 0 at line 64 of [JUNC] section:
  0                90.31      0          0          0          0

  
  ERROR 207: duplicate ID name 0 at line 65 of [JUNC] section:
  0                93.00      0          0          0          0

  
  ERROR 207: duplicate ID name 0 at line 66 of [JUNC] section:
  0                92.00      0          0          0          0

  
  ERROR 207: duplicate ID name 0 at line 67 of [JUNC] section:
  0                91.30      0          0          0          0

  
  ERROR 207: duplicate ID name 0 at line 68 of [JUNC] section:
  0                91.80      0          0          0          0

  
  ERROR 207: duplicate ID name 0 at line 69 of [JUNC] section:
  0                91.00      0          0          0          0

  
  ERROR 207: duplicate ID name 0 at line 70 of [JUNC] section:
  0                89.70      0          0          0          0

  
  ERROR 207: duplicate ID name 0 at line 71 of [JUNC] section:
  0                91.50      0          0          0          0

  
  ERROR 207: duplicate ID name 0 at line 72 of [JUNC] section:
  0                91.90      0          0          0          0

  
  ERROR 207: duplicate ID name 0 at line 73 of [JUNC] section:
  0                93.00      0          0          0          0

  
  ERROR 207: duplicate ID name 0 at line 74 of [JUNC] section:
  0                93.00      0          0          0          0

  
  ERROR 207: duplicate ID name 0 at line 75 of [JUNC] section:
  0                93.20      0          0          0          0

  
  ERROR 207: duplicate ID name 0 at line 76 of [JUNC] section:
  0                93.30      0          0          0          0

  
  ERROR 207: duplicate ID name 0 at line 81 of [STORAGE] section:
  0                94.00      -2.00      0          FUNCTIONAL 100.00 0          0

  
  ERROR 207: duplicate ID name 352 at line 128 of [CONDUIT] section:
  352              0                0                57.00      0.0130     85.12      84.84      0          0


  Analysis begun on:  Sat Mar  7 21:51:24 2026
  Analysis ended on:  Sat Mar  7 21:51:24 2026
  Total elapsed time: < 1 sec