
  EPA STORM WATER MANAGEMENT MODEL - VERSION 5.2 (Build 5.2.4)
  ------------------------------------------------------------

  
  ERROR 207: duplicate ID name 0 at line 27 of [JUNC] section:
  0                48.91      0          0          0          0

  
  ERROR 207: duplicate ID name 0 at line 28 of [JUNC] section:
  0                42.50      0          0          0          0

  
  ERROR 207: duplicate ID name 0 at line 29 of [JUNC] section:
  0                42.50      0          0          0          0

  
  ERROR 207: duplicate ID name 0 at line 30 of [JUNC] section:
  0                55.00      0          0          0          0

  
  ERROR 207: duplicate ID name 0 at line 31 of [JUNC] section:
  0                52.01      0          0          0          0

  
  ERROR 207: duplicate ID name 0 at line 32 of [JUNC] section:
  0                43.50      0          0          0          0

  
  ERROR 207: duplicate ID name 0 at line 33 of [JUNC] section:
  0                42.20      0          0          0          0

  
  ERROR 207: duplicate ID name 0 at line 34 of [JUNC] section:
  0                39.00      0          0          0          0

  
  ERROR 207: duplicate ID name 0 at line 35 of [JUNC] section:
  0                39.00      0          0          0          0

  
  ERROR 207: duplicate ID name 0 at line 36 of [JUNC] section:
  0                45.36      0          0          0          0

  
  ERROR 207: duplicate ID name 0 at line 37 of [JUNC] section:
  0                43.46      0          0          0          0

  
  ERROR 207: duplicate ID name 0 at line 38 of [JUNC] section:
  0                45.45      0          0          0          0

  
  ERROR 207: duplicate ID name 0 at line 39 of [JUNC] section:
  0                42.18      0          0          0          0

  
  ERROR 207: duplicate ID name 0 at line 40 of [JUNC] section:
  0                45.12      0          0          0          0

  
  ERROR 207: duplicate ID name 0 at line 41 of [JUNC] section:
  0                43.09      0          0          0          0

  
  ERROR 207: duplicate ID name 0 at line 42 of [JUNC] section:
  0                44.68      0          0          0          0

  
  ERROR 207: duplicate ID name 0 at line 43 of [JUNC] section:
  0                47.27      0          0          0          0

  
  ERROR 207: duplicate ID name 0 at line 44 of [JUNC] section:
  0                48.62      0          0          0          0

  
  ERROR 207: duplicate ID name 0 at line 45 of [JUNC] section:
  0                46.83      0          0          0          0

  
  ERROR 207: duplicate ID name 0 at line 46 of [JUNC] section:
  0                43.41      0          0          0          0

  
  ERROR 207: duplicate ID name 0 at line 47 of [JUNC] section:
  0                48.06      0          0          0          0

  
  ERROR 207: duplicate ID name 0 at line 48 of [JUNC] section:
  0                48.26      0          0          0          0

  
  ERROR 207: duplicate ID name 0 at line 49 of [JUNC] section:
  0                42.30      0          0          0          0

  
  ERROR 207: duplicate ID name 0 at line 50 of [JUNC] section:
  0                43.11      0          0          0          0

  
  ERROR 207: duplicate ID name 0 at line 51 of [JUNC] section:
  0                42.14      0          0          0          0

  
  ERROR 207: duplicate ID name 0 at line 52 of [JUNC] section:
  0                42.64      0          0          0          0

  
  ERROR 207: duplicate ID name 0 at line 53 of [JUNC] section:
  0                43.94      0          0          0          0

  
  ERROR 207: duplicate ID name 0 at line 54 of [JUNC] section:
  0                45.96      0          0          0          0

  
  ERROR 207: duplicate ID name 0 at line 55 of [JUNC] section:
  0                42.08      0          0          0          0

  
  ERROR 207: duplicate ID name 0 at line 56 of [JUNC] section:
  0                43.80      0          0          0          0

  
  ERROR 207: duplicate ID name 0 at line 57 of [JUNC] section:
  0                48.85      0          0          0          0

  
  ERROR 207: duplicate ID name 0 at line 58 of [JUNC] section:
  0                54.16      0          0          0          0

  
  ERROR 207: duplicate ID name 0 at line 59 of [JUNC] section:
  0                46.85      0          0          0          0

  
  ERROR 207: duplicate ID name 0 at line 60 of [JUNC] section:
  0                48.24      0          0          0          0

  
  ERROR 207: duplicate ID name 0 at line 61 of [JUNC] section:
  0                46.09      0          0          0          0

  
  ERROR 207: duplicate ID name 0 at line 62 of [JUNC] section:
  0                48.00      0          0          0          0

  
  ERROR 207: duplicate ID name 206 at line 102 of [CONDUIT] section:
  206              0                0                212.95     0.0140     46.00      46.00      0          0


  Analysis begun on:  Sat Mar  7 21:51:21 2026
  Analysis ended on:  Sat Mar  7 21:51:21 2026
  Total elapsed time: < 1 sec