
  EPA STORM WATER MANAGEMENT MODEL - VERSION 5.2 (Build 5.2.4)
  ------------------------------------------------------------

  
  ERROR 209: undefined object 0 at line 57 of [XSECT] section:
  IC-10            IRREGULAR    0          0          0          0          1

  
  ERROR 209: undefined object 0 at line 58 of [XSECT] section:
  IC-20            IRREGULAR    0          0          0          0          1

  
  ERROR 209: undefined object 0 at line 59 of [XSECT] section:
  IC-30            IRREGULAR    0          0          0          0          1

  
  ERROR 209: undefined object 0 at line 60 of [XSECT] section:
  IC-40            IRREGULAR    0          0          0          0          1

  
  ERROR 209: undefined object 0 at line 61 of [XSECT] section:
  IC-50            IRREGULAR    0          0          0          0          1

  
  ERROR 211: invalid number  at line 67 of [XSECT] section:
  168              CIRCULAR     0          0          0          0          1


  Analysis begun on:  Sat Mar  7 21:51:22 2026
  Analysis ended on:  Sat Mar  7 21:51:22 2026
  Total elapsed time: < 1 sec