
  EPA STORM WATER MANAGEMENT MODEL - VERSION 5.2 (Build 5.2.4)
  ------------------------------------------------------------

  
  ERROR 209: undefined object ? at line 40 of [CONDUIT] section:
  206              ?                ?                100.00     0.0140     103.00     101.00     0          0

  
  ERROR 209: undefined object ? at line 41 of [CONDUIT] section:
  207              ?                ?                0.90       0.0140     102.00     101.10     0          0

  
  ERROR 209: undefined object ? at line 42 of [CONDUIT] section:
  210              ?                ?                10.00      0.0140     101.70     101.60     0          0

  
  ERROR 209: undefined object ? at line 43 of [CONDUIT] section:
  212              ?                ?                100.00     0.0140     101.10     96.50      0          0


  Analysis begun on:  Sat Mar  7 21:51:27 2026
  Analysis ended on:  Sat Mar  7 21:51:27 2026
  Total elapsed time: < 1 sec