
  EPA STORM WATER MANAGEMENT MODEL - VERSION 5.2 (Build 5.2.4)
  ------------------------------------------------------------

  
  ERROR 209: undefined object 102ovr at line 75 of [CONDUIT] section:
  102pip           102ovr           ?                80.00      0.0130     148.52     148.36     0          0

  
  ERROR 209: undefined object 0 at line 80 of [XSECT] section:
  101              IRREGULAR    0          0          0          0          101

  
  ERROR 209: undefined object 0 at line 81 of [XSECT] section:
  103              IRREGULAR    0          0          0          0          103

  
  ERROR 209: undefined object 0 at line 82 of [XSECT] section:
  104              IRREGULAR    0          0          0          0          104

  
  ERROR 209: undefined object 0 at line 83 of [XSECT] section:
  105              IRREGULAR    0          0          0          0          105

  
  ERROR 209: undefined object 0 at line 85 of [XSECT] section:
  107              IRREGULAR    0          0          0          0          107

  
  ERROR 209: undefined object 0 at line 86 of [XSECT] section:
  108              IRREGULAR    0          0          0          0          108

  
  ERROR 209: undefined object 0 at line 88 of [XSECT] section:
  110              IRREGULAR    0          0          0          0          110

  
  ERROR 209: undefined object 0 at line 89 of [XSECT] section:
  111              IRREGULAR    0          0          0          0          111

  
  ERROR 209: undefined object 0 at line 96 of [XSECT] section:
  118              IRREGULAR    0          0          0          0          118

  
  ERROR 209: undefined object 0 at line 97 of [XSECT] section:
  119              IRREGULAR    0          0          0          0          119

  
  ERROR 209: undefined object 0 at line 98 of [XSECT] section:
  120              IRREGULAR    0          0          0          0          120

  
  ERROR 209: undefined object 0 at line 99 of [XSECT] section:
  121              IRREGULAR    0          0          0          0          121

  
  ERROR 209: undefined object 0 at line 100 of [XSECT] section:
  122              IRREGULAR    0          0          0          0          122


  Analysis begun on:  Sat Mar  7 21:51:26 2026
  Analysis ended on:  Sat Mar  7 21:51:26 2026
  Total elapsed time: < 1 sec