
  EPA STORM WATER MANAGEMENT MODEL - VERSION 5.2 (Build 5.2.4)
  ------------------------------------------------------------

  
  ERROR 209: undefined object ? at line 29 of [ORIFICE] section:
  204.1            ?                ?                SIDE       11.00      0.650      NO       0

  
  ERROR 211: invalid number  at line 34 of [XSECT] section:
  204.1            RECT_CLOSED  2.00       0          0          0          


  Analysis begun on:  Sat Mar  7 21:51:31 2026
  Analysis ended on:  Sat Mar  7 21:51:31 2026
  Total elapsed time: < 1 sec