
  EPA STORM WATER MANAGEMENT MODEL - VERSION 5.2 (Build 5.2.4)
  ------------------------------------------------------------

  
  ERROR 207: duplicate ID name Culvert at line 53 of [CONDUIT] section:
  Culvert          A10              A11              100.00     0.0140     23.20      22.90      0          0

  
  ERROR 207: duplicate ID name Culvert at line 57 of [CONDUIT] section:
  Culvert          B3               B4               200.00     0.0140     24.60      23.90      0          0

  
  ERROR 207: duplicate ID name Culvert at line 58 of [CONDUIT] section:
  Culvert          B6               B7               150.00     0.0140     23.20      22.80      0          0


  Analysis begun on:  Sat Mar  7 21:51:32 2026
  Analysis ended on:  Sat Mar  7 21:51:32 2026
  Total elapsed time: < 1 sec