
  EPA STORM WATER MANAGEMENT MODEL - VERSION 5.2 (Build 5.2.4)
  ------------------------------------------------------------

  
  ERROR 209: undefined object ? at line 2686 of [CONDUIT] section:
  01EW0045_1       ?                Node_1721500     202.97     0.0130     28.80      28.33      0          0

  
  ERROR 209: undefined object ? at line 2687 of [CONDUIT] section:
  01EW0046_1       ?                Node_17221721    65.00      0.0130     30.17      28.80      0          0

  
  ERROR 209: undefined object ? at line 2688 of [CONDUIT] section:
  01EW0500_1       ?                HN01EW0044       82.00      0.0130     18.08      18.05      0          0

  
  ERROR 209: undefined object ? at line 2689 of [CONDUIT] section:
  01EW0501_1       ?                HN01EW0026       247.89     0.0130     18.17      18.08      0          0

  
  ERROR 209: undefined object ? at line 2690 of [CONDUIT] section:
  01EW0502_1       ?                HN01EW0025       550.00     0.0130     18.37      18.17      0          0

  
  ERROR 209: undefined object ? at line 2691 of [CONDUIT] section:
  01EW0503_1       ?                HN01EW0024       218.77     0.0130     18.49      18.41      0          0

  
  ERROR 209: undefined object ? at line 2692 of [CONDUIT] section:
  01EW0504_1       ?                HN01MA0081       600.00     0.0130     18.70      18.49      0          0

  
  ERROR 209: undefined object ? at line 2693 of [CONDUIT] section:
  01EW0505_1       ?                HN01MA0088       360.00     0.0130     18.83      18.70      0          0

  
  ERROR 209: undefined object ? at line 2694 of [CONDUIT] section:
  01EW0506_1       ?                HN01MA0082       577.50     0.0130     19.04      18.83      0          0

  
  ERROR 209: undefined object ? at line 2695 of [CONDUIT] section:
  01EW0507_1       ?                HN01MA0084       360.97     0.0130     19.17      19.04      0          0

  
  ERROR 209: undefined object ? at line 2696 of [CONDUIT] section:
  01EW0508_1       ?                HN01MA0079       77.73      0.0130     19.70      19.67      0          0

  
  ERROR 209: undefined object ? at line 2697 of [CONDUIT] section:
  01EW0509_1       ?                HN01MA0087       207.00     0.0130     19.78      19.70      0          0

  
  ERROR 209: undefined object ? at line 2698 of [CONDUIT] section:
  01EW0510_1       ?                HN01MA0078       250.00     0.0130     20.98      20.78      0          0

  
  ERROR 209: undefined object ? at line 2699 of [CONDUIT] section:
  01EW0511_1       ?                HN01MA0085       255.00     0.0130     21.18      20.98      0          0

  
  ERROR 209: undefined object ? at line 2700 of [CONDUIT] section:
  01EW0512_1       ?                HN01MA0083       146.93     0.0130     21.30      21.18      0          0

  
  ERROR 209: undefined object ? at line 2701 of [CONDUIT] section:
  01EW0513_1       ?                HN01MA0086       117.40     0.0130     21.39      21.30      0          0

  
  ERROR 209: undefined object ? at line 2702 of [CONDUIT] section:
  01EW0514_1       ?                HN01MA0077       349.00     0.0130     21.67      21.39      0          0

  
  ERROR 209: undefined object ? at line 2703 of [CONDUIT] section:
  01EW0515_1       ?                HN01MA0076       184.39     0.0130     21.82      21.67      0          0

  
  ERROR 209: undefined object ? at line 2704 of [CONDUIT] section:
  01EW0516_1       ?                HN01MA0075       265.00     0.0130     22.25      21.82      0          0

  
  ERROR 209: undefined object ? at line 2705 of [CONDUIT] section:
  01EW0517_1       ?                HN01MA0074       38.95      0.0130     22.59      22.25      0          0

  
  ERROR 209: undefined object ? at line 2706 of [CONDUIT] section:
  01EW0518_1       ?                HN01MA0073       38.15      0.0130     23.17      22.59      0          0

  
  ERROR 209: undefined object ? at line 2707 of [CONDUIT] section:
  01EW0519_1       ?                HN01MA0072       146.26     0.0130     25.62      25.30      0          0

  
  ERROR 209: undefined object ? at line 2708 of [CONDUIT] section:
  01EW0520_1       ?                HN01MA0066       117.67     0.0130     25.89      25.62      0          0

  
  ERROR 209: undefined object ? at line 2709 of [CONDUIT] section:
  01EW0521_1       ?                HN01MA0067       37.70      0.0130     25.97      25.89      0          0

  
  ERROR 209: undefined object Node_1220 at line 2710 of [CONDUIT] section:
  01EW1220_1       Node_1220        Node_1745500     116.72     0.0130     32.41      28.10      0          0

  
  ERROR 209: undefined object Node_1221 at line 2711 of [CONDUIT] section:
  01EW1221_1       Node_1221        Node_17461745    225.64     0.0130     32.84      32.41      0          0

  
  ERROR 209: undefined object Node_1222 at line 2712 of [CONDUIT] section:
  01EW1222_1       Node_1222        Node_17471746    154.44     0.0130     33.13      32.84      0          0

  
  ERROR 209: undefined object Node_1223 at line 2713 of [CONDUIT] section:
  01EW1223_1       Node_1223        Node_17481747    201.00     0.0130     33.51      33.13      0          0

  
  ERROR 209: undefined object Node_1224 at line 2714 of [CONDUIT] section:
  01EW1224_1       Node_1224        Node_17491748    309.72     0.0130     34.10      33.51      0          0

  
  ERROR 209: undefined object Node_1230 at line 2715 of [CONDUIT] section:
  01EW1230_1       Node_1230        Node_17501749    20.00      0.0130     34.48      34.10      0          0

  
  ERROR 209: undefined object Node_1300 at line 2716 of [CONDUIT] section:
  01EW1300_1       Node_1300        Node_17511725    109.39     0.0130     18.41      18.37      0          0

  
  ERROR 209: undefined object Node_89 at line 2717 of [CONDUIT] section:
  01MA0089_1       Node_89          Node_1752505     109.59     0.0130     242.25     235.82     0          0

  
  ERROR 209: undefined object Node_91 at line 2718 of [CONDUIT] section:
  01MA0091_1       Node_91          Node_17531752    159.16     0.0130     256.40     242.25     0          0

  
  ERROR 209: undefined object Node_92 at line 2719 of [CONDUIT] section:
  01MA0092_1       Node_92          Node_17541753    205.96     0.0130     267.96     258.40     0          0

  
  ERROR 209: undefined object Node_93 at line 2720 of [CONDUIT] section:
  01MA0093_1       Node_93          Node_17551754    247.78     0.0130     294.57     267.96     0          0

  
  ERROR 209: undefined object Node_94 at line 2721 of [CONDUIT] section:
  01MA0094_1       Node_94          Node_17561755    340.00     0.0130     309.53     294.57     0          0

  
  ERROR 209: undefined object Node_95 at line 2722 of [CONDUIT] section:
  01MA0095_1       Node_95          Node_17571756    240.00     0.0130     323.69     309.53     0          0

  
  ERROR 209: undefined object Node_96 at line 2723 of [CONDUIT] section:
  01MA0096_1       Node_96          Node_17581757    229.81     0.0130     338.87     326.69     0          0

  
  ERROR 209: undefined object Node_97 at line 2724 of [CONDUIT] section:
  01MA0097_1       Node_97          Node_17591758    78.83      0.0130     342.97     338.87     0          0

  
  ERROR 209: undefined object Node_98 at line 2725 of [CONDUIT] section:
  01MA0098_1       Node_98          Node_17601759    313.00     0.0130     381.47     342.97     0          0

  
  ERROR 209: undefined object Node_99 at line 2726 of [CONDUIT] section:
  01MA0099_1       Node_99          Node_17611760    137.59     0.0130     395.23     381.47     0          0

  
  ERROR 209: undefined object Node_101 at line 2727 of [CONDUIT] section:
  01MA0101_1       Node_101         Node_17621761    211.41     0.0130     407.92     395.23     0          0

  
  ERROR 209: undefined object Node_102 at line 2728 of [CONDUIT] section:
  01MA0102_1       Node_102         Node_17631762    307.53     0.0130     415.20     407.92     0          0

  
  ERROR 209: undefined object Node_103 at line 2729 of [CONDUIT] section:
  01MA0103_1       Node_103         Node_17641763    175.47     0.0130     416.95     415.20     0          0

  
  ERROR 209: undefined object Node_104 at line 2730 of [CONDUIT] section:
  01MA0104_1       Node_104         Node_17651764    76.53      0.0130     420.60     419.83     0          0

  
  ERROR 209: undefined object Node_105 at line 2731 of [CONDUIT] section:
  01MA0105_1       Node_105         Node_17661765    246.00     0.0130     432.82     420.60     0          0

  
  ERROR 209: undefined object Node_106 at line 2732 of [CONDUIT] section:
  01MA0106_1       Node_106         Node_17671766    242.00     0.0130     438.45     432.82     0          0

  
  ERROR 209: undefined object Node_107 at line 2733 of [CONDUIT] section:
  01MA0107_1       Node_107         Node_17681767    182.89     0.0130     446.00     438.45     0          0

  
  ERROR 209: undefined object Node_108 at line 2734 of [CONDUIT] section:
  01MA0108_1       Node_108         Node_17691768    130.68     0.0130     464.40     448.50     0          0

  
  ERROR 209: undefined object Node_109 at line 2735 of [CONDUIT] section:
  01MA0109_1       Node_109         Node_17701769    346.50     0.0130     505.19     464.40     0          0

  
  ERROR 209: undefined object Node_111 at line 2736 of [CONDUIT] section:
  01MA0111_1       Node_111         Node_17711770    198.07     0.0130     528.00     507.65     0          0

  
  ERROR 209: undefined object Node_112 at line 2737 of [CONDUIT] section:
  01MA0112_1       Node_112         Node_17721771    129.40     0.0130     538.00     528.00     0          0

  
  ERROR 209: undefined object Node_113 at line 2738 of [CONDUIT] section:
  01MA0113_1       Node_113         Node_17731772    349.51     0.0130     568.00     542.40     0          0

  
  ERROR 209: undefined object Node_114 at line 2739 of [CONDUIT] section:
  01MA0114_1       Node_114         Node_17741773    82.49      0.0130     570.80     568.00     0          0

  
  ERROR 209: undefined object Node_122 at line 2740 of [CONDUIT] section:
  01MA0122_1       Node_122         Node_17751773    167.21     0.0130     572.00     568.00     0          0

  
  ERROR 209: undefined object Node_123 at line 2741 of [CONDUIT] section:
  01MA0123_1       Node_123         Node_17761775    139.09     0.0130     577.56     572.00     0          0

  
  ERROR 209: undefined object Node_124 at line 2742 of [CONDUIT] section:
  01MA0124_1       Node_124         Node_17771776    126.23     0.0130     579.80     577.56     0          0

  
  ERROR 209: undefined object Node_125 at line 2743 of [CONDUIT] section:
  01MA0125_1       Node_125         Node_17781777    86.85      0.0130     586.86     579.80     0          0

  
  ERROR 209: undefined object Node_126 at line 2744 of [CONDUIT] section:
  01MA0126_1       Node_126         Node_17791778    63.75      0.0130     589.41     586.86     0          0

  
  ERROR 209: undefined object Node_127 at line 2745 of [CONDUIT] section:
  01MA0127_1       Node_127         Node_17801779    187.68     0.0130     608.93     589.41     0          0

  
  ERROR 209: undefined object Node_128 at line 2746 of [CONDUIT] section:
  01MA0128_1       Node_128         Node_17811780    212.56     0.0130     630.19     608.93     0          0

  
  ERROR 209: undefined object Node_133 at line 2747 of [CONDUIT] section:
  01MA0133_1       Node_133         Node_17821844    41.95      0.0130     683.64     681.12     0          0

  
  ERROR 209: undefined object Node_134 at line 2748 of [CONDUIT] section:
  01MA0134_1       Node_134         Node_17831782    350.00     0.0130     718.00     683.00     0          0

  
  ERROR 209: undefined object Node_135 at line 2749 of [CONDUIT] section:
  01MA0135_1       Node_135         Node_17841783    63.02      0.0130     724.30     718.00     0          0

  
  ERROR 209: undefined object Node_136 at line 2750 of [CONDUIT] section:
  01MA0136_1       Node_136         Node_17851784    47.00      0.0130     726.73     724.30     0          0

  
  ERROR 209: undefined object Node_137 at line 2751 of [CONDUIT] section:
  01MA0137_1       Node_137         Node_17861785    210.04     0.0130     749.50     731.50     0          0

  
  ERROR 209: undefined object Node_138 at line 2752 of [CONDUIT] section:
  01MA0138_1       Node_138         Node_17871786    265.02     0.0130     770.57     749.50     0          0

  
  ERROR 209: undefined object Node_139 at line 2753 of [CONDUIT] section:
  01MA0139_1       Node_139         Node_17881787    60.16      0.0130     771.17     770.57     0          0

  
  ERROR 209: undefined object Node_141 at line 2754 of [CONDUIT] section:
  01MA0141_1       Node_141         Node_17891788    203.00     0.0130     792.00     775.67     0          0

  
  ERROR 209: undefined object Node_186 at line 2755 of [CONDUIT] section:
  01MA0186_1       Node_186         Node_1790504     77.12      0.0130     178.14     177.75     0          0

  
  ERROR 209: undefined object Node_187 at line 2756 of [CONDUIT] section:
  01MA0187_1       Node_187         Node_17911790    144.16     0.0130     179.77     178.14     0          0

  
  ERROR 209: undefined object Node_188 at line 2757 of [CONDUIT] section:
  01MA0188_1       Node_188         Node_17921791    48.55      0.0130     180.01     179.77     0          0

  
  ERROR 209: undefined object Node_189 at line 2758 of [CONDUIT] section:
  01MA0189_1       Node_189         Node_17931792    182.43     0.0130     190.60     180.01     0          0

  
  ERROR 209: undefined object Node_191 at line 2759 of [CONDUIT] section:
  01MA0191_1       Node_191         Node_17941793    91.00      0.0130     193.42     190.60     0          0

  
  ERROR 209: undefined object Node_192 at line 2760 of [CONDUIT] section:
  01MA0192_1       Node_192         Node_17951794    200.00     0.0130     195.42     193.42     0          0

  
  ERROR 209: undefined object Node_193 at line 2761 of [CONDUIT] section:
  01MA0193_1       Node_193         Node_17961795    209.03     0.0130     200.02     195.42     0          0

  
  ERROR 209: undefined object ? at line 2762 of [CONDUIT] section:
  01MA0205_1       ?                HN05MI0161       256.48     0.0130     206.47     205.65     0          0

  
  ERROR 209: undefined object ? at line 2763 of [CONDUIT] section:
  01MA0316_1       ?                HN05MI0064       41.00      0.0130     422.60     421.18     0          0

  
  ERROR 209: undefined object ? at line 2764 of [CONDUIT] section:
  01MA0339_1       ?                HN05GW0045       158.00     0.0130     613.76     612.19     0          0

  
  ERROR 209: undefined object ? at line 2765 of [CONDUIT] section:
  01MA0341_1       ?                HN05GW0043       250.00     0.0130     617.85     613.76     0          0

  
  ERROR 209: undefined object ? at line 2766 of [CONDUIT] section:
  01MA0342_1       ?                HN05GW0042       184.30     0.0130     627.62     619.51     0          0

  
  ERROR 209: undefined object ? at line 2767 of [CONDUIT] section:
  01MA0343_1       ?                HN05GW0041       120.00     0.0130     635.94     627.62     0          0

  
  ERROR 209: undefined object ? at line 2768 of [CONDUIT] section:
  01MA0349_1       ?                HN05MI0042       188.71     0.0130     651.10     617.85     0          0

  
  ERROR 209: undefined object ? at line 2769 of [CONDUIT] section:
  01MA0475_1       ?                HN05MI0005       107.62     0.0130     200.59     185.50     0          0

  
  ERROR 209: undefined object ? at line 2770 of [CONDUIT] section:
  01MA0476_1       ?                HN05CR0007       181.45     0.0130     214.62     200.59     0          0

  
  ERROR 209: undefined object ? at line 2771 of [CONDUIT] section:
  01MA0700_1       ?                HN24XA0287       112.30     0.0130     100.92     100.64     0          0

  
  ERROR 209: undefined object ? at line 2772 of [CONDUIT] section:
  01MA0701_1       ?                HN24XA0286       183.83     0.0130     101.38     100.92     0          0

  
  ERROR 209: undefined object ? at line 2773 of [CONDUIT] section:
  01MA0702_1       ?                HN24XA0285       55.02      0.0130     102.22     101.38     0          0

  
  ERROR 209: undefined object ? at line 2774 of [CONDUIT] section:
  01MA0703_1       ?                HN24XA0280       245.00     0.0130     112.02     102.47     0          0

  
  ERROR 209: undefined object ? at line 2775 of [CONDUIT] section:
  01MA0704_1       ?                HN24XA0275       164.00     0.0130     112.84     112.02     0          0

  
  ERROR 209: undefined object ? at line 2776 of [CONDUIT] section:
  01MA0705_1       ?                HN24XA0270       225.93     0.0130     113.97     112.84     0          0

  
  ERROR 209: undefined object ? at line 2777 of [CONDUIT] section:
  01MA0706_1       ?                HN24XA0265       230.00     0.0130     115.12     113.97     0          0

  
  ERROR 209: undefined object ? at line 2778 of [CONDUIT] section:
  01MA0707_1       ?                HN24XA0260       240.00     0.0130     118.00     115.12     0          0

  
  ERROR 209: undefined object ? at line 2779 of [CONDUIT] section:
  01MA0708_1       ?                HN24XA0255       195.01     0.0130     120.34     118.00     0          0

  
  ERROR 209: undefined object ? at line 2780 of [CONDUIT] section:
  01MA0709_1       ?                HN24XA0253       81.34      0.0130     125.22     120.34     0          0

  
  ERROR 209: undefined object ? at line 2781 of [CONDUIT] section:
  01MA0710_1       ?                HN24XA0250       240.00     0.0130     132.14     130.15     0          0

  
  ERROR 209: undefined object ? at line 2782 of [CONDUIT] section:
  01MA0711_1       ?                HN24XA0245       30.00      0.0130     132.39     132.14     0          0

  
  ERROR 209: undefined object ? at line 2783 of [CONDUIT] section:
  01MA0712_1       ?                HN24XA0240       43.00      0.0130     132.61     132.39     0          0

  
  ERROR 209: undefined object ? at line 2784 of [CONDUIT] section:
  01MA0713_1       ?                HN24XA0235       180.00     0.0130     133.51     132.61     0          0

  
  ERROR 209: undefined object ? at line 2785 of [CONDUIT] section:
  01MA0714_1       ?                HN24XA0230       175.75     0.0130     134.39     133.51     0          0

  
  Maximum error count exceeded.

  Analysis begun on:  Sat Mar  7 21:51:26 2026
  Analysis ended on:  Sat Mar  7 21:51:26 2026
  Total elapsed time: < 1 sec