
  EPA STORM WATER MANAGEMENT MODEL - VERSION 5.2 (Build 5.2.4)
  ------------------------------------------------------------

  
  ERROR 209: undefined object ? at line 36 of [CONDUIT] section:
  263              ?                ?                100.00     0.0140     0          0          0          0

  
  ERROR 209: undefined object ? at line 37 of [CONDUIT] section:
  265              ?                ?                100.00     0.0140     0          0          0          0

  
  ERROR 209: undefined object ? at line 38 of [CONDUIT] section:
  267              ?                ?                100.00     0.0140     0          2.00       0          0


  Analysis begun on:  Sat Mar  7 21:51:29 2026
  Analysis ended on:  Sat Mar  7 21:51:29 2026
  Total elapsed time: < 1 sec