
  EPA STORM WATER MANAGEMENT MODEL - VERSION 5.2 (Build 5.2.4)
  ------------------------------------------------------------

  
  ERROR 211: invalid number  at line 40 of [XSECT] section:
  1                POWER        10.00      20.00      0          0          1

  
  ERROR 211: invalid number  at line 41 of [XSECT] section:
  2                RECT_OPEN    0          0          0          0          


  Analysis begun on:  Sat Mar  7 21:51:22 2026
  Analysis ended on:  Sat Mar  7 21:51:22 2026
  Total elapsed time: < 1 sec