
  EPA STORM WATER MANAGEMENT MODEL - VERSION 5.2 (Build 5.2.4)
  ------------------------------------------------------------

  
  ERROR 209: undefined object ? at line 84 of [CONDUIT] section:
  240              ?                ?                0          0          0          0          0          0

  
  ERROR 209: undefined object ? at line 115 of [CONDUIT] section:
  329              ?                ?                0          0          0          0          0          0

  
  ERROR 209: undefined object ? at line 116 of [CONDUIT] section:
  330              ?                ?                0          0          0          0          0          0

  
  ERROR 209: undefined object ? at line 117 of [CONDUIT] section:
  331              ?                ?                0          0          0          0          0          0

  
  ERROR 209: undefined object ? at line 118 of [CONDUIT] section:
  332              ?                ?                0          0          0          0          0          0

  
  ERROR 209: undefined object ? at line 119 of [CONDUIT] section:
  333              ?                ?                0          0          0          0          0          0

  
  ERROR 209: undefined object ? at line 120 of [CONDUIT] section:
  334              ?                ?                0          0          0          0          0          0

  
  ERROR 209: undefined object ? at line 121 of [CONDUIT] section:
  335              ?                ?                0          0          0          0          0          0

  
  ERROR 209: undefined object ? at line 122 of [CONDUIT] section:
  336              ?                ?                0          0          0          0          0          0

  
  ERROR 209: undefined object ? at line 123 of [CONDUIT] section:
  337              ?                ?                0          0          0          0          0          0

  
  ERROR 209: undefined object ? at line 124 of [CONDUIT] section:
  338              ?                ?                0          0          0          0          0          0

  
  ERROR 209: undefined object 10.00 at line 129 of [XSECT] section:
  shape1a          IRREGULAR    10.00      0          0          0          1

  
  ERROR 209: undefined object 10.00 at line 130 of [XSECT] section:
  shape1b          IRREGULAR    10.00      0          0          0          1

  
  ERROR 209: undefined object 10.00 at line 131 of [XSECT] section:
  shape1c          IRREGULAR    10.00      0          0          0          1

  
  ERROR 209: undefined object 10.00 at line 132 of [XSECT] section:
  shape2a          IRREGULAR    10.00      0          0          0          1

  
  ERROR 209: undefined object 10.00 at line 133 of [XSECT] section:
  shape2b          IRREGULAR    10.00      0          0          0          1

  
  ERROR 209: undefined object 10.00 at line 134 of [XSECT] section:
  shape2c          IRREGULAR    10.00      0          0          0          1

  
  ERROR 211: invalid number  at line 135 of [XSECT] section:
  240              CIRCULAR     0          0          0          0          1

  
  ERROR 209: undefined object 10.00 at line 136 of [XSECT] section:
  shape3a          IRREGULAR    10.00      0          0          0          1

  
  ERROR 209: undefined object 10.00 at line 137 of [XSECT] section:
  shape3b          IRREGULAR    10.00      0          0          0          1

  
  ERROR 209: undefined object 10.00 at line 138 of [XSECT] section:
  shape3c          IRREGULAR    10.00      0          0          0          1

  
  ERROR 209: undefined object 10.00 at line 139 of [XSECT] section:
  shape4a          IRREGULAR    10.00      0          0          0          1

  
  ERROR 209: undefined object 10.00 at line 140 of [XSECT] section:
  shape4b          IRREGULAR    10.00      0          0          0          1

  
  ERROR 209: undefined object 10.00 at line 141 of [XSECT] section:
  shape4c          IRREGULAR    10.00      0          0          0          1

  
  ERROR 209: undefined object 10.00 at line 142 of [XSECT] section:
  shape5a          IRREGULAR    10.00      0          0          0          1

  
  ERROR 209: undefined object 10.00 at line 143 of [XSECT] section:
  shape5b          IRREGULAR    10.00      0          0          0          1

  
  ERROR 209: undefined object 10.00 at line 144 of [XSECT] section:
  shape5c          IRREGULAR    10.00      0          0          0          1

  
  ERROR 209: undefined object 10.00 at line 145 of [XSECT] section:
  shape6a          IRREGULAR    10.00      0          0          0          1

  
  ERROR 209: undefined object 10.00 at line 146 of [XSECT] section:
  shape6b          IRREGULAR    10.00      0          0          0          1

  
  ERROR 209: undefined object 10.00 at line 147 of [XSECT] section:
  shape6c          IRREGULAR    10.00      0          0          0          1

  
  ERROR 209: undefined object 10.00 at line 148 of [XSECT] section:
  shape7a          IRREGULAR    10.00      0          0          0          1

  
  ERROR 209: undefined object 10.00 at line 149 of [XSECT] section:
  shape7b          IRREGULAR    10.00      0          0          0          1

  
  ERROR 209: undefined object 10.00 at line 150 of [XSECT] section:
  shape7c          IRREGULAR    10.00      0          0          0          1

  
  ERROR 209: undefined object 10.00 at line 151 of [XSECT] section:
  shape8a          IRREGULAR    10.00      0          0          0          1

  
  ERROR 209: undefined object 10.00 at line 152 of [XSECT] section:
  shape8b          IRREGULAR    10.00      0          0          0          1

  
  ERROR 209: undefined object 10.00 at line 153 of [XSECT] section:
  shape8c          IRREGULAR    10.00      0          0          0          1

  
  ERROR 209: undefined object 10.00 at line 154 of [XSECT] section:
  shape9a          IRREGULAR    10.00      0          0          0          1

  
  ERROR 209: undefined object 10.00 at line 155 of [XSECT] section:
  shape9b          IRREGULAR    10.00      0          0          0          1

  
  ERROR 209: undefined object 10.00 at line 156 of [XSECT] section:
  shape9c          IRREGULAR    10.00      0          0          0          1

  
  ERROR 209: undefined object 10.00 at line 157 of [XSECT] section:
  shape10a         IRREGULAR    10.00      0          0          0          1

  
  ERROR 209: undefined object 10.00 at line 158 of [XSECT] section:
  shape10b         IRREGULAR    10.00      0          0          0          1

  
  ERROR 209: undefined object 10.00 at line 159 of [XSECT] section:
  shape10c         IRREGULAR    10.00      0          0          0          1

  
  ERROR 209: undefined object 10.00 at line 160 of [XSECT] section:
  shape11a         IRREGULAR    10.00      0          0          0          1

  
  ERROR 209: undefined object 10.00 at line 161 of [XSECT] section:
  shape11b         IRREGULAR    10.00      0          0          0          1

  
  ERROR 209: undefined object 10.00 at line 162 of [XSECT] section:
  shape11c         IRREGULAR    10.00      0          0          0          1

  
  ERROR 209: undefined object 10.00 at line 163 of [XSECT] section:
  shape12a         IRREGULAR    10.00      0          0          0          1

  
  ERROR 209: undefined object 10.00 at line 164 of [XSECT] section:
  shape12b         IRREGULAR    10.00      0          0          0          1

  
  ERROR 209: undefined object 10.00 at line 165 of [XSECT] section:
  shape12c         IRREGULAR    10.00      0          0          0          1

  
  ERROR 211: invalid number  at line 166 of [XSECT] section:
  329              CIRCULAR     0          0          0          0          1

  
  ERROR 211: invalid number  at line 167 of [XSECT] section:
  330              CIRCULAR     0          0          0          0          1

  
  ERROR 211: invalid number  at line 168 of [XSECT] section:
  331              CIRCULAR     0          0          0          0          1

  
  ERROR 211: invalid number  at line 169 of [XSECT] section:
  332              CIRCULAR     0          0          0          0          1

  
  ERROR 211: invalid number  at line 170 of [XSECT] section:
  333              CIRCULAR     0          0          0          0          1

  
  ERROR 211: invalid number  at line 171 of [XSECT] section:
  334              CIRCULAR     0          0          0          0          1

  
  ERROR 211: invalid number  at line 172 of [XSECT] section:
  335              CIRCULAR     0          0          0          0          1

  
  ERROR 211: invalid number  at line 173 of [XSECT] section:
  336              CIRCULAR     0          0          0          0          1

  
  ERROR 211: invalid number  at line 174 of [XSECT] section:
  337              CIRCULAR     0          0          0          0          1

  
  ERROR 211: invalid number  at line 175 of [XSECT] section:
  338              CIRCULAR     0          0          0          0          1


  Analysis begun on:  Sat Mar  7 21:51:32 2026
  Analysis ended on:  Sat Mar  7 21:51:32 2026
  Total elapsed time: < 1 sec