
  EPA STORM WATER MANAGEMENT MODEL - VERSION 5.2 (Build 5.2.4)
  ------------------------------------------------------------

  
  ERROR 211: invalid number  at line 40 of [XSECT] section:
  3a               POWER        2.50       5.00       0          0          1

  
  ERROR 209: undefined object 5.00 at line 41 of [XSECT] section:
  3                CUSTOM       2.50       5.00       0          0          1

  
  ERROR 211: invalid number  at line 42 of [XSECT] section:
  8                CIRCULAR     0          0          0          0          1


  Analysis begun on:  Sat Mar  7 21:51:33 2026
  Analysis ended on:  Sat Mar  7 21:51:33 2026
  Total elapsed time: < 1 sec