
  EPA STORM WATER MANAGEMENT MODEL - VERSION 5.2 (Build 5.2.4)
  ------------------------------------------------------------

  
  ERROR 209: undefined object 1 at line 90 of [PUMP] section:
  PUMP 1           PUMP 2           PUMP 3           PC_PUMP 1  ON       0          0         

  
  ERROR 205: invalid keyword 1 at line 95 of [CURVE] section:
  PC_PUMP 1        Pump2      0          0


  Analysis begun on:  Sat Mar  7 21:51:22 2026
  Analysis ended on:  Sat Mar  7 21:51:22 2026
  Total elapsed time: < 1 sec