
  EPA STORM WATER MANAGEMENT MODEL - VERSION 5.2 (Build 5.2.4)
  ------------------------------------------------------------

  
  ERROR 209: undefined object Node_26202 at line 523 of [CONDUIT] section:
  LN26202          Node_26202       Node_10101008    130.10     0.0140     763.79     762.51     0          0

  
  ERROR 209: undefined object Node_38005 at line 524 of [CONDUIT] section:
  LJ38005          Node_38005       Node_13931379    471.47     0.0140     796.44     795.80     0          0

  
  ERROR 209: undefined object Node_18031 at line 525 of [CONDUIT] section:
  LI18031          Node_18031       Node_14851486    119.36     0.0140     771.18     771.12     0          0

  
  ERROR 209: undefined object Node_30001 at line 526 of [CONDUIT] section:
  LP30001          Node_30001       Node_20661066    737.28     0.0140     745.42     745.00     0          0

  
  ERROR 209: undefined object Node_6003 at line 527 of [CONDUIT] section:
  LS06003          Node_6003        Node_26021109    300.57     0.0140     723.79     723.42     0          0

  
  ERROR 209: undefined object ? at line 528 of [CONDUIT] section:
  LReg8-1          ?                Node_29952991    100.00     0.0140     754.18     754.14     0          0

  
  ERROR 209: undefined object ? at line 529 of [CONDUIT] section:
  LReg8-W1         ?                Node_29932994    100.00     0.0140     754.17     750.00     0          0

  
  ERROR 209: undefined object ? at line 530 of [CONDUIT] section:
  LReg8-OR1        ?                Node_2992384     199.91     0.0140     752.01     729.56     0          0

  
  ERROR 209: undefined object ? at line 531 of [CONDUIT] section:
  LReg11-1         ?                Node_30063002    100.00     0.0140     761.61     761.57     0          0

  
  ERROR 209: undefined object ? at line 532 of [CONDUIT] section:
  LReg11-W1        ?                Node_30043005    100.00     0.0140     761.57     760.00     0          0

  
  ERROR 209: undefined object ? at line 533 of [CONDUIT] section:
  LReg11-OR1       ?                Node_3003334     128.32     0.0140     759.57     731.34     0          0

  
  ERROR 209: undefined object ? at line 534 of [CONDUIT] section:
  LReg3-OR1        ?                Node_3016533     8.18       0.0140     736.47     734.67     0          0

  
  ERROR 209: undefined object ? at line 535 of [CONDUIT] section:
  LReg12C-W1       ?                Node_30373038    39.00      0.0140     745.77     745.73     0          0

  
  ERROR 209: undefined object ? at line 536 of [CONDUIT] section:
  LReg12COR1       ?                Node_3035302     25.95      0.0140     745.77     740.06     0          0

  
  ERROR 209: undefined object Node_6112 at line 537 of [CONDUIT] section:
  LL06112          Node_6112        Node_30393035    900.00     0.0140     746.22     745.77     0          0

  
  ERROR 209: undefined object ? at line 538 of [CONDUIT] section:
  LReg14-OR1       ?                Node_30503051    100.00     0.0140     734.15     734.07     0          0

  
  ERROR 209: undefined object ? at line 539 of [CONDUIT] section:
  LReg15-OR1       ?                Node_3051346     11.18      0.0140     732.60     730.14     0          0

  
  ERROR 209: undefined object ? at line 540 of [CONDUIT] section:
  LReg15-2         ?                Node_30463045    100.00     0.0140     739.85     739.81     0          0

  
  ERROR 209: undefined object ? at line 541 of [CONDUIT] section:
  LReg15-1         ?                Node_30453049    5.00       0.0140     739.81     739.81     0          0

  
  ERROR 209: undefined object ? at line 542 of [CONDUIT] section:
  LReg15-W1        ?                Node_30473048    100.00     0.0140     739.81     739.77     0          0

  
  ERROR 209: undefined object ? at line 544 of [CONDUIT] section:
  Reg31-DIV        ?                Node_31273126    361.00     0.0140     775.98     770.00     0          0

  
  ERROR 209: undefined object ? at line 545 of [CONDUIT] section:
  LReg30-1         ?                Node_31383125    100.00     0.0140     762.71     762.67     0          0

  
  ERROR 209: undefined object ? at line 546 of [CONDUIT] section:
  LReg30-W1        ?                Node_31363137    100.00     0.0140     762.67     762.63     0          0

  
  ERROR 209: undefined object ? at line 547 of [CONDUIT] section:
  LReg31-1         ?                Node_31393127    100.00     0.0140     777.24     777.20     0          0

  
  ERROR 209: undefined object ? at line 548 of [CONDUIT] section:
  LReg31-W1        ?                Node_31343135    100.00     0.0140     776.76     776.72     0          0

  
  ERROR 209: undefined object Node_6038 at line 549 of [CONDUIT] section:
  LQ06038          Node_6038        Node_31583159    100.00     0.0140     740.37     740.25     0          0

  
  ERROR 209: undefined object ? at line 550 of [CONDUIT] section:
  LReg4            ?                Node_31593160    100.00     0.0140     740.25     740.25     0          0

  
  ERROR 209: undefined object ? at line 551 of [CONDUIT] section:
  LReg10-1         ?                Node_31723169    100.00     0.0140     741.64     741.57     0          0

  
  ERROR 209: undefined object ? at line 552 of [CONDUIT] section:
  Reg10-OR         ?                Node_31693173    2300.00    0.0140     741.27     740.50     0          0

  
  ERROR 209: undefined object ? at line 553 of [CONDUIT] section:
  LReg10-W1        ?                Node_31703171    100.00     0.0140     741.57     741.50     0          0

  
  ERROR 209: undefined object ? at line 554 of [CONDUIT] section:
  Reg14-W          ?                Node_31803047    10.00      0.0140     743.66     743.50     0          0

  
  ERROR 209: undefined object ? at line 555 of [CONDUIT] section:
  LReg14-1         ?                Node_31813180    100.00     0.0140     743.90     743.66     0          0

  
  ERROR 209: undefined object Node_6086 at line 559 of [CONDUIT] section:
  LL06086          Node_6086        Node_3224302     40.00      0.0140     738.58     738.56     0          0

  
  ERROR 209: undefined object Node_6079 at line 560 of [CONDUIT] section:
  LL06079          Node_6079        Node_32273224    1238.00    0.0140     739.82     738.58     0          0

  
  ERROR 209: undefined object Node_6073 at line 561 of [CONDUIT] section:
  LL06073          Node_6073        Node_32333227    320.00     0.0140     743.08     741.00     0          0

  
  ERROR 209: undefined object Node_6069 at line 562 of [CONDUIT] section:
  LL06069          Node_6069        Node_32363233    230.00     0.0140     746.74     746.00     0          0

  
  ERROR 209: undefined object Node_6140 at line 563 of [CONDUIT] section:
  LL06140          Node_6140        Node_32353229    340.00     0.0140     742.61     741.73     0          0

  
  ERROR 209: undefined object Node_6172 at line 564 of [CONDUIT] section:
  LL06172          Node_6172        Node_32343225    950.00     0.0140     752.64     747.85     0          0

  
  ERROR 209: undefined object Node_10234 at line 565 of [CONDUIT] section:
  LM10234          Node_10234       Node_32443242    240.00     0.0140     738.13     737.99     0          0

  
  ERROR 209: undefined object ? at line 566 of [CONDUIT] section:
  LLS23-W1         ?                Node_32423241    20.00      0.0140     737.99     737.97     0          0

  
  ERROR 209: undefined object Node_10237 at line 567 of [CONDUIT] section:
  LM10237          Node_10237       Node_32413240    400.00     0.0140     737.97     737.57     0          0

  
  ERROR 209: undefined object Node_10252 at line 568 of [CONDUIT] section:
  LM10252          Node_10252       Node_3240264     220.00     0.0140     737.57     737.53     0          0

  
  ERROR 209: undefined object Node_6251 at line 569 of [CONDUIT] section:
  LM06251          Node_6251        Node_32553218    100.00     0.0140     748.60     748.51     0          0

  
  ERROR 209: undefined object ? at line 570 of [CONDUIT] section:
  LR12A-W2         ?                Node_32513252    360.00     0.0140     748.51     746.16     0          0

  
  ERROR 209: undefined object ? at line 571 of [CONDUIT] section:
  LR12A-OR1        ?                Node_3262265     20.00      0.0140     748.51     748.41     0          0

  
  ERROR 209: undefined object ? at line 572 of [CONDUIT] section:
  LReg12-OR1       ?                Node_3254267     10.00      0.0140     728.26     727.84     0          0

  
  ERROR 209: undefined object ? at line 573 of [CONDUIT] section:
  LR12&12A         ?                Node_32523267    230.00     0.0140     744.10     744.00     0          0

  
  ERROR 209: undefined object Node_6098 at line 574 of [CONDUIT] section:
  LM06098          Node_6098        Node_32723220    100.00     0.0140     746.46     746.41     0          0

  
  ERROR 209: undefined object ? at line 575 of [CONDUIT] section:
  LR12B-W1         ?                Node_32693271    575.00     0.0140     746.41     746.12     0          0

  
  ERROR 209: undefined object ? at line 576 of [CONDUIT] section:
  LR12B-OR1        ?                Node_3270219     15.00      0.0140     746.41     738.39     0          0

  
  ERROR 209: undefined object ? at line 577 of [CONDUIT] section:
  LR12D-OR1        ?                Node_32253224    10.00      0.0140     747.85     740.08     0          0

  
  ERROR 209: undefined object ? at line 578 of [CONDUIT] section:
  LR12D-W1         ?                Node_32783279    48.00      0.0140     747.85     745.73     0          0

  
  ERROR 209: undefined object ? at line 579 of [CONDUIT] section:
  Reg12E-OR        ?                Node_32293287    10.00      0.0140     741.73     741.70     0          0

  
  ERROR 209: undefined object ? at line 580 of [CONDUIT] section:
  LR12E-OR1        ?                Node_32873227    150.00     0.0140     741.70     739.82     0          0

  
  ERROR 209: undefined object ? at line 581 of [CONDUIT] section:
  R12F-W           ?                Node_32333293    100.00     0.0140     744.50     742.00     0          0

  
  ERROR 209: undefined object Node_18064 at line 582 of [CONDUIT] section:
  LL18064          Node_18064       Node_32993306    100.00     0.0140     748.70     748.52     0          0

  
  ERROR 209: undefined object ? at line 583 of [CONDUIT] section:
  LReg24-W1        ?                Node_32963297    80.00      0.0140     748.42     748.00     0          0

  
  ERROR 209: undefined object Node_22092 at line 584 of [CONDUIT] section:
  LN22092          Node_22092       Node_3311756     1536.06    0.0140     749.44     746.75     0          0

  
  ERROR 209: undefined object Node_22101 at line 585 of [CONDUIT] section:
  LN22101          Node_22101       Node_33183314    100.00     0.0140     753.50     753.26     0          0

  
  ERROR 209: undefined object ? at line 586 of [CONDUIT] section:
  R26A-W           ?                Node_33143317    100.00     0.0140     753.26     752.86     0          0

  
  ERROR 209: undefined object ? at line 587 of [CONDUIT] section:
  R26A-D           ?                Node_33143313    460.00     0.0140     752.80     751.86     0          0

  
  ERROR 209: undefined object ? at line 588 of [CONDUIT] section:
  Reg26-W          ?                Node_33133316    100.00     0.0140     752.89     752.75     0          0

  
  ERROR 209: undefined object Node_22071 at line 589 of [CONDUIT] section:
  LO22071          Node_22071       Node_33303329    1800.00    0.0140     756.40     749.99     0          0

  
  ERROR 209: undefined object Node_22092 at line 590 of [CONDUIT] section:
  LO22092          Node_22092       Node_33293328    760.00     0.0140     749.99     749.05     0          0

  
  ERROR 209: undefined object Node_22085 at line 591 of [CONDUIT] section:
  LO22085          Node_22085       Node_33283327    4810.00    0.0140     749.00     741.06     0          0

  
  ERROR 209: undefined object ? at line 592 of [CONDUIT] section:
  LReg34-W1        ?                Node_33473346    425.00     0.0140     754.01     753.80     0          0

  
  ERROR 209: undefined object Node_22100 at line 593 of [CONDUIT] section:
  LO22100          Node_22100       Node_33453342    165.00     0.0140     754.13     754.01     0          0

  
  ERROR 209: undefined object ? at line 594 of [CONDUIT] section:
  LR34A-W1         ?                Node_33523353    180.00     0.0140     749.00     748.53     0          0

  
  ERROR 209: undefined object Node_22157 at line 595 of [CONDUIT] section:
  LP22157          Node_22157       Node_33433326    100.00     0.0140     762.02     761.90     0          0

  
  ERROR 209: undefined object ? at line 596 of [CONDUIT] section:
  LReg35-W1        ?                Node_33583341    635.00     0.0140     762.71     757.00     0          0

  
  ERROR 209: undefined object ? at line 597 of [CONDUIT] section:
  LReg28-W1        ?                Node_33623363    100.00     0.0140     738.07     737.95     0          0

  
  ERROR 209: undefined object Node_18271 at line 598 of [CONDUIT] section:
  LM18271          Node_18271       Node_33273361    33.00      0.0140     741.06     740.98     0          0

  
  ERROR 209: undefined object ? at line 599 of [CONDUIT] section:
  LREG23-OR1       ?                Node_3380289     540.00     0.0140     732.80     732.15     0          0

  
  ERROR 209: undefined object Node_10090 at line 600 of [CONDUIT] section:
  LM10090B         Node_10090       Node_33843387    200.00     0.0140     735.06     734.27     0          0

  
  ERROR 209: undefined object R23-18" at line 601 of [CONDUIT] section:
  R23-30"          R23-18"          M10121           227.00     0.0140     732.15     728.82     0          0

  
  ERROR 209: undefined object Node_10090 at line 602 of [CONDUIT] section:
  LM10090A         Node_10090       Node_33843382    180.00     0.0140     735.06     734.97     0          0

  
  ERROR 209: undefined object Node_10140 at line 603 of [CONDUIT] section:
  LM10140          Node_10140       Node_33953382    200.00     0.0140     735.05     734.97     0          0

  
  ERROR 209: undefined object ? at line 604 of [CONDUIT] section:
  Reg23-W          ?                Node_33823383    100.00     0.0140     734.97     734.92     0          0

  
  ERROR 209: undefined object Node_66008 at line 605 of [CONDUIT] section:
  LJ66008          Node_66008       Node_34152896    3207.00    0.0140     838.08     833.77     0          0

  
  ERROR 209: undefined object Node_66003 at line 606 of [CONDUIT] section:
  LK66003          Node_66003       Node_28962821    8984.00    0.0140     833.01     814.00     0          0

  
  ERROR 209: undefined object Node_58001 at line 607 of [CONDUIT] section:
  LK58001          Node_58001       Node_28212252    3388.00    0.0140     812.30     801.10     0          0

  
  ERROR 209: undefined object Node_58008 at line 608 of [CONDUIT] section:
  LL58008          Node_58008       Node_22522118    3663.00    0.0140     800.82     789.21     0          0

  
  ERROR 209: undefined object Node_58027 at line 609 of [CONDUIT] section:
  LN58027          Node_58027       Node_21182139    3149.00    0.0140     787.91     781.11     0          0

  
  ERROR 209: undefined object Node_54003 at line 610 of [CONDUIT] section:
  LO54003          Node_54003       Node_2139721     4967.00    0.0140     781.11     765.00     0          0

  
  ERROR 209: undefined object Node_46004 at line 612 of [CONDUIT] section:
  LP46004          Node_46004       Node_2150229     4284.00    0.0140     758.83     755.00     0          0

  
  ERROR 209: undefined object Node_66038 at line 613 of [CONDUIT] section:
  LP66038          Node_66038       Node_34332237    1970.00    0.0140     815.00     812.73     0          0

  
  ERROR 209: undefined object Node_50074 at line 614 of [CONDUIT] section:
  LR50074          Node_50074       Node_29852976    1382.00    0.0140     761.73     759.00     0          0

  
  ERROR 209: undefined object Node_66001 at line 615 of [CONDUIT] section:
  LP66001          Node_66001       Node_22372985    15596.00   0.0140     812.37     763.07     0          0

  
  ERROR 209: undefined object Node_54008 at line 616 of [CONDUIT] section:
  LT54008          Node_54008       Node_29212928    1812.00    0.0140     761.30     759.50     0          0

  
  ERROR 209: undefined object Node_58003 at line 617 of [CONDUIT] section:
  LS58003          Node_58003       Node_34413440    494.00     0.0140     778.01     777.11     0          0

  
  ERROR 209: undefined object Node_58007 at line 618 of [CONDUIT] section:
  LT58007          Node_58007       Node_34403439    565.00     0.0140     775.16     774.00     0          0

  
  ERROR 209: undefined object Node_58003 at line 619 of [CONDUIT] section:
  LT58003          Node_58003       Node_34392921    2525.00    0.0140     773.87     762.30     0          0

  
  ERROR 209: undefined object Node_54008 at line 620 of [CONDUIT] section:
  LU54008          Node_54008       Node_29442928    3163.00    0.0140     759.85     758.84     0          0

  
  ERROR 209: undefined object Node_54006 at line 621 of [CONDUIT] section:
  LU54006          Node_54006       Node_29502944    1192.00    0.0140     760.23     759.85     0          0

  
  ERROR 209: undefined object Node_46001 at line 622 of [CONDUIT] section:
  LV46001          Node_46001       Node_34482754    4096.00    0.0140     776.78     766.95     0          0

  
  ERROR 209: undefined object Node_46008 at line 623 of [CONDUIT] section:
  LT46008          Node_46008       Node_27542782    2909.00    0.0140     765.30     763.00     0          0

  
  ERROR 209: undefined object S4610" at line 624 of [CONDUIT] section:
  S468"            S4610"           Node_27822776    348.00     0.0140     763.00     759.76     0          0

  
  ERROR 209: undefined object Node_46002 at line 625 of [CONDUIT] section:
  LS46002          Node_46002       Node_27762963    1472.00    0.0140     759.75     758.81     0          0

  
  ERROR 209: undefined object Node_54004 at line 626 of [CONDUIT] section:
  LT54004          Node_54004       Node_29282963    3892.00    0.0140     758.84     757.76     0          0

  
  ERROR 209: undefined object Node_50002 at line 627 of [CONDUIT] section:
  LS50002          Node_50002       Node_29632976    2923.00    0.0140     757.76     757.05     0          0

  
  Maximum error count exceeded.

  Analysis begun on:  Sat Mar  7 21:51:25 2026
  Analysis ended on:  Sat Mar  7 21:51:25 2026
  Total elapsed time: < 1 sec