
  EPA STORM WATER MANAGEMENT MODEL - VERSION 5.2 (Build 5.2.4)
  ------------------------------------------------------------

  
  ERROR 209: undefined object Node_2421 at line 869 of [CONDUIT] section:
  2421             Node_2421        Node_1986271     8598.00    0.0140     5.00       5.00       0          0

  
  ERROR 209: undefined object Node_1425 at line 974 of [CONDUIT] section:
  1425             Node_1425        Node_1723420     1300.00    0.0120     5.00       5.00       0          0

  
  ERROR 209: undefined object Node_3418 at line 1003 of [CONDUIT] section:
  3418.1           Node_3418        Node_1932460     137.00     0.0140     5.00       5.00       0          0

  
  ERROR 209: undefined object 488-12" at line 1005 of [CONDUIT] section:
  488-8"           488-12"          J2386            0          0          0          0          0          0

  
  ERROR 209: undefined object 2307-48" at line 1012 of [CONDUIT] section:
  2307-30"         2307-48"         J3307            6696.00    0.0140     5.00       5.00       0          0

  
  ERROR 209: undefined object 3307-48" at line 1013 of [CONDUIT] section:
  3307-42"         3307-48"         J3387            5055.00    0.0140     5.00       5.00       0          0

  
  ERROR 209: undefined object Node_5414 at line 1014 of [CONDUIT] section:
  5414             Node_5414        Node_20351714    3693.00    0.0140     5.00       5.00       0          0

  
  ERROR 209: undefined object 1310-48" at line 1015 of [CONDUIT] section:
  1310-72"         1310-48"         Node_1681478     3044.00    0.0140     5.00       5.00       0          0

  
  ERROR 209: undefined object Node_2414 at line 1033 of [CONDUIT] section:
  2414             Node_2414        Node_1933463     960.00     0.0140     5.00       5.00       0          0

  
  ERROR 209: undefined object 3414-30" at line 1034 of [CONDUIT] section:
  3414-24"         3414-30"         M5-AC2           1400.00    0.0120     5.00       5.00       0          0

  
  ERROR 209: undefined object 2319-16" at line 1052 of [CONDUIT] section:
  2319-30"         2319-16"         M3-AC2           4917.00    0.0140     5.00       5.00       0          0

  
  ERROR 209: undefined object 319-12 at line 1077 of [CONDUIT] section:
  319-8            319-12           J2319-P          1720.00    0.0120     5.00       5.00       0          0

  
  ERROR 209: undefined object Node_3319 at line 1080 of [CONDUIT] section:
  3319             Node_3319        Node_1949522     1024.00    0.0120     5.00       5.00       0          0

  
  ERROR 209: undefined object 3387-42" at line 1084 of [CONDUIT] section:
  3387-48"         3387-42"         S300             1405.00    0.0120     5.00       5.00       0          0

  
  ERROR 209: undefined object Node_3304 at line 1102 of [CONDUIT] section:
  3304             Node_3304        Node_1808588     1678.00    0.0140     5.00       5.00       0          0

  
  ERROR 209: undefined object Node_3388 at line 1117 of [CONDUIT] section:
  3338             Node_3388        Node_1954610     403.00     0.0120     5.00       5.00       0          0

  
  ERROR 209: undefined object 5487 at line 1130 of [CONDUIT] section:
  5487             5487 ll          Node_1957619     1681.00    0.0120     5.00       5.00       0          0

  
  ERROR 209: undefined object 2339 at line 1133 of [CONDUIT] section:
  2339             2339 ll          J3339            2581.00    0.0120     5.00       5.00       0          0

  
  ERROR 209: undefined object Node_10461 at line 1163 of [CONDUIT] section:
  10461            Node_10461       Node_2259681     1774.00    0.0120     5.00       5.00       0          0

  
  ERROR 209: undefined object G2354 at line 1179 of [CONDUIT] section:
  2354             G2354            Node_20571878    1839.00    0.0120     5.00       5.00       0          0

  
  ERROR 209: undefined object Node_2357 at line 1189 of [CONDUIT] section:
  G2357            Node_2357        Node_20391881    600.00     0.0140     1.02       -0.78      0          0

  
  ERROR 209: undefined object Node_10361 at line 1201 of [CONDUIT] section:
  10361            Node_10361       Node_22581885    5740.00    0.0120     5.00       5.00       0          0

  
  ERROR 209: undefined object Node_4436 at line 1211 of [CONDUIT] section:
  4436             Node_4436        Node_22602113    1260.00    0.0120     5.00       5.00       0          0

  
  ERROR 209: undefined object Node_3383 at line 1234 of [CONDUIT] section:
  G3383            Node_3383        Node_1820864     1731.00    0.0140     4.18       0.71       0          0

  
  ERROR 209: undefined object ? at line 1262 of [CONDUIT] section:
  393              ?                S324             1130.00    0.0140     5.00       5.00       0          0

  
  ERROR 209: undefined object Node_2393 at line 1263 of [CONDUIT] section:
  G2393            Node_2393        Node_16511652    880.00     0.0140     5.00       2.36       0          0

  
  ERROR 209: undefined object ? at line 1264 of [CONDUIT] section:
  392              ?                S480             1272.00    0.0140     5.00       5.00       0          0

  
  ERROR 209: undefined object ? at line 1266 of [CONDUIT] section:
  320              ?                J499             1400.00    0.0120     5.00       5.00       0          0

  
  ERROR 209: undefined object Node_3477 at line 1267 of [CONDUIT] section:
  3477             Node_3477        Node_1678851     300.00     0.0120     5.00       5.00       0          0

  
  ERROR 209: undefined object Node_4345 at line 1268 of [CONDUIT] section:
  4345             Node_4345        Node_16841680    50.00      0.0120     5.00       5.00       0          0

  
  ERROR 209: undefined object Node_5436 at line 1269 of [CONDUIT] section:
  5436             Node_5436        Node_1686511     1200.00    0.0120     5.00       5.00       0          0

  
  ERROR 209: undefined object Node_2336 at line 1271 of [CONDUIT] section:
  2336             Node_2336        Node_1936643     350.00     0.0120     5.00       5.00       0          0

  
  ERROR 209: undefined object Node_2447 at line 1272 of [CONDUIT] section:
  3447             Node_2447        Node_1706231     1618.00    0.0120     5.00       5.00       0          0

  
  ERROR 209: undefined object Node_3318 at line 1273 of [CONDUIT] section:
  3318             Node_3318        Node_1939231     1150.00    0.0120     5.00       5.00       0          0

  
  ERROR 209: undefined object ? at line 1274 of [CONDUIT] section:
  447              ?                J322             100.00     0.0120     5.00       5.00       0          0

  
  ERROR 209: undefined object Node_1447 at line 1275 of [CONDUIT] section:
  1447             Node_1447        Node_17121706    860.00     0.0120     5.00       5.00       0          0

  
  ERROR 209: undefined object Node_1318 at line 1276 of [CONDUIT] section:
  1318             Node_1318        Node_17131938    1100.00    0.0120     5.00       5.00       0          0

  
  ERROR 209: undefined object Node_1318 at line 1277 of [CONDUIT] section:
  1318.1           Node_1318        Node_17131712    50.00      0.0120     5.00       5.00       0          0

  
  ERROR 209: undefined object Node_2434 at line 1279 of [CONDUIT] section:
  2434             Node_2434        Node_17201714    4300.00    0.0120     5.00       5.00       0          0

  
  ERROR 209: undefined object Node_3434 at line 1280 of [CONDUIT] section:
  3434             Node_3434        Node_17141715    850.00     0.0120     5.00       5.00       0          0

  
  ERROR 209: undefined object Node_1509 at line 1281 of [CONDUIT] section:
  3462             Node_1509        Node_17151716    7000.00    0.0120     5.00       5.00       0          0

  
  ERROR 209: undefined object Node_3323 at line 1282 of [CONDUIT] section:
  3323             Node_3323        Node_17161684    5100.00    0.0120     5.00       5.00       0          0

  
  ERROR 209: undefined object Node_1362 at line 1288 of [CONDUIT] section:
  1362             Node_1362        Node_17461878    2150.00    0.0140     5.00       0.81       0          0

  
  ERROR 209: undefined object 1383-12" at line 1289 of [CONDUIT] section:
  1383-6"          1383-12"         Node_1748856     50.00      0.0120     13.00      13.00      0          0

  
  ERROR 209: undefined object Node_1450 at line 1291 of [CONDUIT] section:
  1450             Node_1450        Node_1751231     2100.00    0.0120     5.00       5.00       0          0

  
  ERROR 209: undefined object Node_4366 at line 1293 of [CONDUIT] section:
  4366             Node_4366        Node_1804658     50.00      0.0120     9.00       9.00       0          0

  
  ERROR 209: undefined object 2383-12" at line 1295 of [CONDUIT] section:
  2383-6"          2383-12"         J3383            600.00     0.0140     5.00       5.00       0          0

  
  ERROR 209: undefined object Node_2325 at line 1296 of [CONDUIT] section:
  PL2325           Node_2325        Node_18781879    442.00     0.0110     0.32       -0.37      0          0

  
  ERROR 209: undefined object Node_3039 at line 1297 of [CONDUIT] section:
  PK3039           Node_3039        Node_1898748     1100.00    0.0110     -5.20      -6.86      0          0

  
  ERROR 209: undefined object Node_2323 at line 1298 of [CONDUIT] section:
  PL2323           Node_2323        Node_18791881    388.00     0.0110     -0.37      -0.78      0          0

  
  ERROR 209: undefined object Node_2322 at line 1299 of [CONDUIT] section:
  PL2322           Node_2322        Node_18811882    500.00     0.0110     -0.78      -1.28      0          0

  
  ERROR 209: undefined object Node_2319 at line 1300 of [CONDUIT] section:
  PL2319           Node_2319        Node_18821883    468.00     0.0110     -1.28      -1.33      0          0

  
  ERROR 209: undefined object Node_2317 at line 1301 of [CONDUIT] section:
  PK2317           Node_2317        Node_18831884    462.00     0.0110     -1.33      -1.36      0          0

  
  ERROR 209: undefined object Node_2316 at line 1302 of [CONDUIT] section:
  PL2316           Node_2316        Node_18841885    462.00     0.0110     -1.36      -1.83      0          0

  
  ERROR 209: undefined object ? at line 1303 of [CONDUIT] section:
  PK2097           ?                J2390            440.00     0.0110     -1.83      -2.43      0          0

  
  ERROR 209: undefined object ? at line 1304 of [CONDUIT] section:
  PK2096           ?                J3498-P          442.00     0.0110     -2.43      -2.47      0          0

  
  ERROR 209: undefined object Node_3090 at line 1305 of [CONDUIT] section:
  PK3090           Node_3090        Node_18871888    441.00     0.0110     -2.47      -2.74      0          0

  
  ERROR 209: undefined object Node_3089 at line 1306 of [CONDUIT] section:
  PK3089           Node_3089        Node_18881889    196.00     0.0110     -2.74      -3.48      0          0

  
  ERROR 209: undefined object Node_3088 at line 1307 of [CONDUIT] section:
  PK3088           Node_3088        Node_18891890    217.00     0.0110     -3.48      -3.63      0          0

  
  ERROR 209: undefined object Node_3063 at line 1308 of [CONDUIT] section:
  PK3063           Node_3063        Node_18901891    378.00     0.0110     -3.63      -3.94      0          0

  
  ERROR 209: undefined object Node_3061 at line 1309 of [CONDUIT] section:
  PK3061           Node_3061        Node_18911892    383.00     0.0110     -3.94      -3.95      0          0

  
  ERROR 209: undefined object Node_3047 at line 1310 of [CONDUIT] section:
  PK3047           Node_3047        Node_18921893    178.00     0.0110     -3.95      -3.98      0          0

  
  ERROR 209: undefined object Node_3045 at line 1311 of [CONDUIT] section:
  PK3045           Node_3045        Node_18931894    305.00     0.0110     -3.98      -4.09      0          0

  
  ERROR 209: undefined object Node_3044 at line 1312 of [CONDUIT] section:
  PK3044           Node_3044        Node_18941895    495.00     0.0110     -4.09      -5.18      0          0

  
  ERROR 209: undefined object Node_3043 at line 1313 of [CONDUIT] section:
  PK3043           Node_3043        Node_18951896    365.00     0.0110     -4.90      -5.10      0          0

  
  ERROR 209: undefined object Node_3041 at line 1314 of [CONDUIT] section:
  PK3041           Node_3041        Node_18961897    115.00     0.0110     -5.10      -5.15      0          0

  
  ERROR 209: undefined object Node_3040 at line 1315 of [CONDUIT] section:
  PK3040           Node_3040        Node_18971898    67.00      0.0110     -5.15      -5.20      0          0

  
  ERROR 209: undefined object ? at line 1316 of [CONDUIT] section:
  M6-AC36          ?                Node_19321933    455.00     0.0140     5.00       5.00       0          0

  
  ERROR 209: undefined object ? at line 1317 of [CONDUIT] section:
  M4-AC6           ?                Node_19351936    60.00      0.0120     10.00      10.00      0          0

  
  ERROR 209: undefined object ? at line 1318 of [CONDUIT] section:
  F1-AC24          ?                Node_19381939    231.00     0.0120     10.75      10.75      0          0

  
  ERROR 209: undefined object ? at line 1319 of [CONDUIT] section:
  K1-AC12          ?                Node_19411942    112.00     0.0120     8.50       8.50       0          0

  
  ERROR 209: undefined object Node_3371 at line 1321 of [CONDUIT] section:
  3371             Node_3371        Node_1942646     1100.00    0.0120     3.00       3.00       0          0

  
  ERROR 209: undefined object ? at line 1322 of [CONDUIT] section:
  M3-AC24          ?                Node_19481949    110.50     0.0120     8.60       8.90       0          0

  
  ERROR 209: undefined object ? at line 1324 of [CONDUIT] section:
  N4-AC6           ?                Node_19531954    125.00     0.0120     10.00      10.00      0          0

  
  ERROR 209: undefined object ? at line 1325 of [CONDUIT] section:
  P5-AC12          ?                Node_19561957    49.00      0.0120     9.80       9.80       0          0

  
  ERROR 209: undefined object ? at line 1326 of [CONDUIT] section:
  D2-AC16          ?                Node_19591960    227.00     0.0120     8.75       8.75       0          0

  
  ERROR 209: undefined object Node_2457 at line 1328 of [CONDUIT] section:
  2457             Node_2457        Node_19601964    1600.00    0.0120     5.00       5.00       0          0

  
  ERROR 209: undefined object Node_3457 at line 1329 of [CONDUIT] section:
  3457             Node_3457        Node_19661938    6700.00    0.0120     5.00       5.00       0          0

  
  ERROR 209: undefined object ? at line 1330 of [CONDUIT] section:
  C3-AC36          ?                Node_19681969    180.00     0.0120     10.50      10.50      0          0

  
  ERROR 209: undefined object Node_3392 at line 1331 of [CONDUIT] section:
  3392             Node_3392        Node_19691971    3700.00    0.0120     5.00       5.00       0          0

  
  ERROR 209: undefined object ? at line 1332 of [CONDUIT] section:
  C4-AC36          ?                Node_19711973    180.00     0.0120     10.50      10.50      0          0

  
  ERROR 209: undefined object Node_4392 at line 1333 of [CONDUIT] section:
  4392             Node_4392        Node_1973337     1450.00    0.0120     5.00       5.00       0          0

  
  ERROR 209: undefined object ? at line 1334 of [CONDUIT] section:
  D4-AC16          ?                Node_19771978    200.00     0.0120     8.50       8.50       0          0

  
  ERROR 209: undefined object Node_1311 at line 1335 of [CONDUIT] section:
  1311             Node_1311        Node_1978512     400.00     0.0120     5.00       5.00       0          0

  
  ERROR 209: undefined object ? at line 1336 of [CONDUIT] section:
  E2-AC16          ?                Node_19641966    227.00     0.0120     8.75       8.75       0          0

  
  ERROR 209: undefined object ? at line 1337 of [CONDUIT] section:
  F1-AC24-1        ?                Node_19831984    261.00     0.0120     10.20      10.20      0          0

  
  ERROR 209: undefined object Node_1421 at line 1338 of [CONDUIT] section:
  1421             Node_1421        Node_19841986    200.00     0.0120     5.00       5.00       0          0

  
  ERROR 209: undefined object ? at line 1339 of [CONDUIT] section:
  F1-AC16          ?                Node_19881989    160.00     0.0120     9.73       9.73       0          0

  
  ERROR 209: undefined object ? at line 1340 of [CONDUIT] section:
  349              ?                J317             780.00     0.0120     0.50       0.50       0          0

  
  ERROR 209: undefined object Node_2349 at line 1341 of [CONDUIT] section:
  2349             Node_2349        Node_1989229     2000.00    0.0120     0.50       0.50       0          0

  
  ERROR 209: undefined object ? at line 1342 of [CONDUIT] section:
  H1-AC16          ?                Node_19951996    150.00     0.0120     10.00      10.00      0          0

  
  ERROR 209: undefined object Node_4302 at line 1343 of [CONDUIT] section:
  4302             Node_4302        Node_1996286     3300.00    0.0120     5.00       5.00       0          0

  
  ERROR 209: undefined object Node_72 at line 1344 of [CONDUIT] section:
  F4-AC72          Node_72          Node_20002001    84.20      0.0120     9.00       9.00       0          0

  
  ERROR 209: undefined object Node_3962 at line 1346 of [CONDUIT] section:
  3962             Node_3962        Node_2001493     5000.00    0.0120     5.00       5.00       0          0

  
  ERROR 209: undefined object Node_1766 at line 1347 of [CONDUIT] section:
  F5-AC36          Node_1766        Node_20072008    116.00     0.0120     7.85       7.85       0          0

  
  ERROR 209: undefined object Node_3300 at line 1349 of [CONDUIT] section:
  3300             Node_3300        Node_2008484     4387.00    0.0140     5.00       5.00       0          0

  
  ERROR 209: undefined object ? at line 1350 of [CONDUIT] section:
  R7-AC24          ?                Node_20142015    142.20     0.0120     9.81       9.81       0          0

  
  ERROR 209: undefined object ? at line 1351 of [CONDUIT] section:
  PJM-44           ?                Node_20172014    1300.00    0.0120     5.00       5.00       0          0

  
  ERROR 209: undefined object ? at line 1352 of [CONDUIT] section:
  418-1            ?                J2424-P          8603.00    0.0140     5.00       5.00       0          0

  
  ERROR 209: undefined object ? at line 1353 of [CONDUIT] section:
  P6-AC36          ?                Node_20212022    83.05      0.0120     11.70      11.70      0          0

  
  Maximum error count exceeded.

  Analysis begun on:  Sat Mar  7 21:51:31 2026
  Analysis ended on:  Sat Mar  7 21:51:31 2026
  Total elapsed time: < 1 sec