
  EPA STORM WATER MANAGEMENT MODEL - VERSION 5.2 (Build 5.2.4)
  ------------------------------------------------------------

  
  ERROR 209: undefined object ? at line 41 of [CONDUIT] section:
  203              ?                ?                8.00       0.0140     100.00     99.00      0          0

  
  ERROR 209: undefined object ? at line 42 of [CONDUIT] section:
  205              ?                ?                8.00       0.3000     99.00      98.00      0          0

  
  ERROR 209: undefined object ? at line 43 of [CONDUIT] section:
  207              ?                ?                8.00       0.0140     98.00      97.00      0          0

  
  ERROR 209: undefined object ? at line 44 of [CONDUIT] section:
  209              ?                ?                8.00       0.0140     97.00      96.00      0          0

  
  ERROR 209: undefined object ? at line 45 of [CONDUIT] section:
  211              ?                ?                8.00       0.0140     96.00      96.00      0          0

  
  ERROR 209: undefined object ? at line 46 of [CONDUIT] section:
  213              ?                ?                8.00       0.0140     96.00      95.90      0          0

  
  ERROR 209: undefined object ? at line 47 of [CONDUIT] section:
  215              ?                ?                8.00       0.0140     95.90      95.80      0          0

  
  ERROR 209: undefined object ? at line 48 of [CONDUIT] section:
  217              ?                ?                6.00       0.0140     95.80      95.80      0          0

  
  ERROR 209: undefined object ? at line 49 of [CONDUIT] section:
  219              ?                ?                10.00      0.0140     95.80      94.00      0          0


  Analysis begun on:  Sat Mar  7 21:51:23 2026
  Analysis ended on:  Sat Mar  7 21:51:23 2026
  Total elapsed time: < 1 sec