
  EPA STORM WATER MANAGEMENT MODEL - VERSION 5.2 (Build 5.2.4)
  ------------------------------------------------------------

  
  ERROR 209: undefined object ? at line 32 of [CONDUIT] section:
  203              ?                ?                1.00       0          0          0          0          0

  
  ERROR 209: undefined object 10.00 at line 37 of [XSECT] section:
  203              IRREGULAR    10.00      0          0          0          1


  Analysis begun on:  Sat Mar  7 21:51:28 2026
  Analysis ended on:  Sat Mar  7 21:51:28 2026
  Total elapsed time: < 1 sec