
  EPA STORM WATER MANAGEMENT MODEL - VERSION 5.2 (Build 5.2.4)
  ------------------------------------------------------------

  
  ERROR 209: undefined object 3.00 at line 34 of [XSECT] section:
  A                IRREGULAR    3.00       0          0          0          1


  Analysis begun on:  Sat Mar  7 21:51:33 2026
  Analysis ended on:  Sat Mar  7 21:51:34 2026
  Total elapsed time: 00:00:01