
  EPA STORM WATER MANAGEMENT MODEL - VERSION 5.2 (Build 5.2.4)
  ------------------------------------------------------------

  
  ERROR 209: undefined object ? at line 39 of [CONDUIT] section:
  2x36             ?                ?                50.00      0.0140     136.00     135.00     0          0

  
  ERROR 211: invalid number  at line 54 of [XSECT] section:
  100              RECT_OPEN    0          50.00      0          0          


  Analysis begun on:  Sat Mar  7 21:51:23 2026
  Analysis ended on:  Sat Mar  7 21:51:23 2026
  Total elapsed time: < 1 sec