
  EPA STORM WATER MANAGEMENT MODEL - VERSION 5.2 (Build 5.2.4)
  ------------------------------------------------------------

  
  ERROR 211: invalid number  at line 49 of [XSECT] section:
  8                CIRCULAR     0          0          0          0          1

  
  ERROR 211: invalid number  at line 50 of [XSECT] section:
  Out              RECT_CLOSED  0          0          0          0          


  Analysis begun on:  Sat Mar  7 21:51:28 2026
  Analysis ended on:  Sat Mar  7 21:51:28 2026
  Total elapsed time: < 1 sec