
  EPA STORM WATER MANAGEMENT MODEL - VERSION 5.2 (Build 5.2.4)
  ------------------------------------------------------------

  
  ERROR 207: duplicate ID name 308 at line 122 of [JUNC] section:
  308              891.30     0          0          0          0

  
  ERROR 207: duplicate ID name 307a at line 123 of [JUNC] section:
  307a             891.75     0          0          0          0

  
  ERROR 207: duplicate ID name 306 at line 124 of [JUNC] section:
  306              891.67     0          0          0          0

  
  ERROR 207: duplicate ID name 305 at line 125 of [JUNC] section:
  305              890.12     0          0          0          0

  
  ERROR 207: duplicate ID name 302 at line 126 of [JUNC] section:
  302              889.20     0          0          0          0

  
  ERROR 207: duplicate ID name 301 at line 127 of [JUNC] section:
  301              884.62     0          0          0          0

  
  ERROR 207: duplicate ID name 233b at line 129 of [JUNC] section:
  233b             883.55     0          0          0          0

  
  ERROR 207: duplicate ID name 233a at line 130 of [JUNC] section:
  233a             882.33     0          0          0          0

  
  ERROR 207: duplicate ID name 300 at line 140 of [STORAGE] section:
  300              885.65     0          0          FUNCTIONAL 200.00 0          0

  
  ERROR 207: duplicate ID name MER at line 147 of [STORAGE] section:
  MER              888.92     0          0          FUNCTIONAL 18548.20 0          0

  
  ERROR 207: duplicate ID name 303 at line 148 of [STORAGE] section:
  303              887.49     -1.00      0          FUNCTIONAL 40000.00 0          0

  
  ERROR 207: duplicate ID name LBR at line 149 of [STORAGE] section:
  LBR              890.48     -1.48      0          FUNCTIONAL 5000.00 0          0

  
  ERROR 207: duplicate ID name 8 at line 260 of [CONDUIT] section:
  8                308              307a             131.72     0.0130     883.80     883.42     0          0

  
  ERROR 207: duplicate ID name 9 at line 261 of [CONDUIT] section:
  9                307a             306              307.45     0.0130     883.42     882.50     0          0

  
  ERROR 207: duplicate ID name 10 at line 262 of [CONDUIT] section:
  10               306              305              234.02     0.0130     882.50     881.79     0          0

  
  ERROR 207: duplicate ID name 11 at line 263 of [CONDUIT] section:
  11               305              MER              291.60     0.0130     881.79     880.92     0          0

  
  ERROR 207: duplicate ID name 12 at line 264 of [CONDUIT] section:
  12               MER              303              218.47     0.0130     880.92     879.99     0          0

  
  ERROR 207: duplicate ID name 13 at line 265 of [CONDUIT] section:
  13               303              302              206.12     0.0130     879.99     879.20     0          0

  
  ERROR 207: duplicate ID name 14 at line 266 of [CONDUIT] section:
  14               302              301              139.00     0.0130     879.20     878.79     0          0

  
  ERROR 207: duplicate ID name 15 at line 267 of [CONDUIT] section:
  15               301              300              299.41     0.0130     878.79     876.82     0          0

  
  ERROR 207: duplicate ID name 7 at line 268 of [CONDUIT] section:
  7                LBR              308              225.84     0.0130     884.48     883.80     0          0

  
  ERROR 207: duplicate ID name 16 at line 269 of [CONDUIT] section:
  16               300              233b             275.13     0.0130     876.82     874.38     0          0

  
  ERROR 207: duplicate ID name 17 at line 270 of [CONDUIT] section:
  17               233b             233a             218.84     0.0130     874.38     872.33     0          0


  Analysis begun on:  Sat Mar  7 21:51:29 2026
  Analysis ended on:  Sat Mar  7 21:51:29 2026
  Total elapsed time: < 1 sec