
  EPA STORM WATER MANAGEMENT MODEL - VERSION 5.2 (Build 5.2.4)
  ------------------------------------------------------------

  
  ERROR 209: undefined object Node_1026 at line 36 of [CONDUIT] section:
  1026             Node_1026        Node_1225556     100.00     0.0140     0          0          0          0


  Analysis begun on:  Sat Mar  7 21:51:31 2026
  Analysis ended on:  Sat Mar  7 21:51:31 2026
  Total elapsed time: < 1 sec