
  EPA STORM WATER MANAGEMENT MODEL - VERSION 5.2 (Build 5.2.4)
  ------------------------------------------------------------

  
  ERROR 209: undefined object 4.00 at line 480 of [XSECT] section:
  20360            IRREGULAR    4.00       0          0          0          1

  
  ERROR 209: undefined object 39.00 at line 481 of [XSECT] section:
  20350            IRREGULAR    39.00      0          0          0          1

  
  ERROR 209: undefined object 39.00 at line 482 of [XSECT] section:
  20340            IRREGULAR    39.00      0          0          0          1

  
  ERROR 209: undefined object 9.90 at line 483 of [XSECT] section:
  20330            IRREGULAR    9.90       0          0          0          1

  
  ERROR 209: undefined object 7.30 at line 485 of [XSECT] section:
  20310            IRREGULAR    7.30       0          0          0          1

  
  ERROR 209: undefined object 7.80 at line 487 of [XSECT] section:
  20290            IRREGULAR    7.80       0          0          0          1

  
  ERROR 209: undefined object 7.80 at line 488 of [XSECT] section:
  20280            IRREGULAR    7.80       0          0          0          1

  
  ERROR 209: undefined object 7.80 at line 489 of [XSECT] section:
  20270            IRREGULAR    7.80       0          0          0          1

  
  ERROR 209: undefined object 7.80 at line 490 of [XSECT] section:
  20260            IRREGULAR    7.80       0          0          0          1

  
  ERROR 209: undefined object 7.80 at line 491 of [XSECT] section:
  20250            IRREGULAR    7.80       0          0          0          1

  
  ERROR 209: undefined object 13.20 at line 493 of [XSECT] section:
  20230            IRREGULAR    13.20      0          0          0          1

  
  ERROR 209: undefined object 13.20 at line 494 of [XSECT] section:
  20220            IRREGULAR    13.20      0          0          0          1

  
  ERROR 209: undefined object 8.10 at line 495 of [XSECT] section:
  20210            IRREGULAR    8.10       0          0          0          1

  
  ERROR 209: undefined object 8.20 at line 497 of [XSECT] section:
  20190            IRREGULAR    8.20       0          0          0          1

  
  ERROR 209: undefined object 8.20 at line 498 of [XSECT] section:
  20180            IRREGULAR    8.20       0          0          0          1

  
  ERROR 209: undefined object 6.00 at line 499 of [XSECT] section:
  20170            IRREGULAR    6.00       0          0          0          1

  
  ERROR 209: undefined object 6.30 at line 500 of [XSECT] section:
  20150            IRREGULAR    6.30       0          0          0          1

  
  ERROR 209: undefined object 6.30 at line 501 of [XSECT] section:
  20140            IRREGULAR    6.30       0          0          0          1

  
  ERROR 209: undefined object 6.60 at line 503 of [XSECT] section:
  20110            IRREGULAR    6.60       0          0          0          1

  
  ERROR 209: undefined object 6.70 at line 505 of [XSECT] section:
  20070            IRREGULAR    6.70       0          0          0          1

  
  ERROR 209: undefined object 6.70 at line 506 of [XSECT] section:
  20060            IRREGULAR    6.70       0          0          0          1

  
  ERROR 209: undefined object 6.70 at line 507 of [XSECT] section:
  20050            IRREGULAR    6.70       0          0          0          1

  
  ERROR 209: undefined object 7.00 at line 509 of [XSECT] section:
  20010            IRREGULAR    7.00       0          0          0          1

  
  ERROR 209: undefined object 4.00 at line 511 of [XSECT] section:
  21040            IRREGULAR    4.00       0          0          0          1

  
  ERROR 209: undefined object 4.00 at line 512 of [XSECT] section:
  21020            IRREGULAR    4.00       0          0          0          1

  
  ERROR 209: undefined object 16.20 at line 513 of [XSECT] section:
  21010            IRREGULAR    16.20      0          0          0          1

  
  ERROR 209: undefined object 4.00 at line 514 of [XSECT] section:
  21030            IRREGULAR    4.00       0          0          0          1

  
  ERROR 209: undefined object 8.20 at line 515 of [XSECT] section:
  22060            IRREGULAR    8.20       0          0          0          1

  
  ERROR 209: undefined object 8.20 at line 516 of [XSECT] section:
  22050            IRREGULAR    8.20       0          0          0          1

  
  ERROR 209: undefined object 8.20 at line 517 of [XSECT] section:
  22040            IRREGULAR    8.20       0          0          0          1

  
  ERROR 209: undefined object 6.70 at line 519 of [XSECT] section:
  22020            IRREGULAR    6.70       0          0          0          1

  
  ERROR 209: undefined object 6.70 at line 520 of [XSECT] section:
  22010            IRREGULAR    6.70       0          0          0          1

  
  ERROR 209: undefined object 9.85 at line 521 of [XSECT] section:
  23160            IRREGULAR    9.85       0          0          0          1

  
  ERROR 209: undefined object 10.00 at line 523 of [XSECT] section:
  23140            IRREGULAR    10.00      0          0          0          1

  
  ERROR 209: undefined object 10.00 at line 524 of [XSECT] section:
  23130            IRREGULAR    10.00      0          0          0          1

  
  ERROR 209: undefined object 10.00 at line 525 of [XSECT] section:
  23120            IRREGULAR    10.00      0          0          0          1

  
  ERROR 209: undefined object 10.00 at line 526 of [XSECT] section:
  23110            IRREGULAR    10.00      0          0          0          1

  
  ERROR 209: undefined object 10.00 at line 527 of [XSECT] section:
  23100            IRREGULAR    10.00      0          0          0          1

  
  ERROR 209: undefined object 10.00 at line 528 of [XSECT] section:
  23030            IRREGULAR    10.00      0          0          0          1

  
  ERROR 209: undefined object 8.20 at line 530 of [XSECT] section:
  23010            IRREGULAR    8.20       0          0          0          1

  
  ERROR 209: undefined object 10.00 at line 531 of [XSECT] section:
  23060            IRREGULAR    10.00      0          0          0          1

  
  ERROR 209: undefined object 10.00 at line 532 of [XSECT] section:
  23050            IRREGULAR    10.00      0          0          0          1

  
  ERROR 209: undefined object 10.00 at line 533 of [XSECT] section:
  23040            IRREGULAR    10.00      0          0          0          1

  
  ERROR 209: undefined object 10.00 at line 534 of [XSECT] section:
  23070            IRREGULAR    10.00      0          0          0          1

  
  ERROR 209: undefined object 7.80 at line 540 of [XSECT] section:
  24020            IRREGULAR    7.80       0          0          0          1

  
  ERROR 209: undefined object 7.80 at line 541 of [XSECT] section:
  24010            IRREGULAR    7.80       0          0          0          1

  
  ERROR 209: undefined object 9.85 at line 543 of [XSECT] section:
  23180            IRREGULAR    9.85       0          0          0          1

  
  ERROR 209: undefined object 9.85 at line 544 of [XSECT] section:
  23170            IRREGULAR    9.85       0          0          0          1

  
  ERROR 209: undefined object 9.85 at line 545 of [XSECT] section:
  23200            IRREGULAR    9.85       0          0          0          1

  
  ERROR 209: undefined object 9.85 at line 546 of [XSECT] section:
  23190            IRREGULAR    9.85       0          0          0          1

  
  ERROR 209: undefined object 7.50 at line 547 of [XSECT] section:
  10720            IRREGULAR    7.50       0          0          0          1

  
  ERROR 209: undefined object 7.50 at line 548 of [XSECT] section:
  10710            IRREGULAR    7.50       0          0          0          1

  
  ERROR 209: undefined object 11.02 at line 549 of [XSECT] section:
  10700            IRREGULAR    11.02      0          0          0          1

  
  ERROR 209: undefined object 11.02 at line 550 of [XSECT] section:
  10690            IRREGULAR    11.02      0          0          0          1

  
  ERROR 209: undefined object 11.02 at line 551 of [XSECT] section:
  10670            IRREGULAR    11.02      0          0          0          1

  
  ERROR 209: undefined object 12.00 at line 553 of [XSECT] section:
  10630            IRREGULAR    12.00      0          0          0          1

  
  ERROR 209: undefined object 12.00 at line 554 of [XSECT] section:
  10620            IRREGULAR    12.00      0          0          0          1

  
  ERROR 209: undefined object 12.00 at line 555 of [XSECT] section:
  10610            IRREGULAR    12.00      0          0          0          1

  
  ERROR 209: undefined object 7.80 at line 556 of [XSECT] section:
  10600            IRREGULAR    7.80       0          0          0          1

  
  ERROR 209: undefined object 8.10 at line 558 of [XSECT] section:
  10560            IRREGULAR    8.10       0          0          0          1

  
  ERROR 209: undefined object 12.00 at line 560 of [XSECT] section:
  10520            IRREGULAR    12.00      0          0          0          1

  
  ERROR 209: undefined object 12.00 at line 561 of [XSECT] section:
  10510            IRREGULAR    12.00      0          0          0          1

  
  ERROR 209: undefined object 12.00 at line 562 of [XSECT] section:
  10500            IRREGULAR    12.00      0          0          0          1

  
  ERROR 209: undefined object 12.00 at line 563 of [XSECT] section:
  10490            IRREGULAR    12.00      0          0          0          1

  
  ERROR 209: undefined object 12.00 at line 564 of [XSECT] section:
  10480            IRREGULAR    12.00      0          0          0          1

  
  ERROR 209: undefined object 14.50 at line 565 of [XSECT] section:
  10470            IRREGULAR    14.50      0          0          0          1

  
  ERROR 209: undefined object 13.80 at line 566 of [XSECT] section:
  10460            IRREGULAR    13.80      0          0          0          1

  
  ERROR 209: undefined object 13.90 at line 568 of [XSECT] section:
  10420            IRREGULAR    13.90      0          0          0          1

  
  ERROR 209: undefined object 9.00 at line 569 of [XSECT] section:
  10410            IRREGULAR    9.00       0          0          0          1

  
  ERROR 209: undefined object 9.05 at line 571 of [XSECT] section:
  10380            IRREGULAR    9.05       0          0          0          1

  
  ERROR 209: undefined object 12.90 at line 572 of [XSECT] section:
  10370            IRREGULAR    12.90      0          0          0          1

  
  ERROR 209: undefined object 12.00 at line 574 of [XSECT] section:
  10330            IRREGULAR    12.00      0          0          0          1

  
  ERROR 209: undefined object 6.20 at line 575 of [XSECT] section:
  10320            IRREGULAR    6.20       0          0          0          1

  
  ERROR 209: undefined object 6.20 at line 576 of [XSECT] section:
  10300            IRREGULAR    6.20       0          0          0          1

  
  ERROR 209: undefined object 6.20 at line 578 of [XSECT] section:
  10260            IRREGULAR    6.20       0          0          0          1

  
  ERROR 209: undefined object 6.20 at line 579 of [XSECT] section:
  10250            IRREGULAR    6.20       0          0          0          1

  
  ERROR 209: undefined object 6.20 at line 580 of [XSECT] section:
  10240            IRREGULAR    6.20       0          0          0          1

  
  ERROR 209: undefined object 6.20 at line 581 of [XSECT] section:
  10230            IRREGULAR    6.20       0          0          0          1

  
  ERROR 209: undefined object 6.20 at line 582 of [XSECT] section:
  10220            IRREGULAR    6.20       0          0          0          1

  
  ERROR 209: undefined object 7.73 at line 583 of [XSECT] section:
  10200            IRREGULAR    7.73       0          0          0          1

  
  ERROR 209: undefined object 10.23 at line 585 of [XSECT] section:
  10180            IRREGULAR    10.23      0          0          0          1

  
  ERROR 209: undefined object 6.56 at line 586 of [XSECT] section:
  10170            IRREGULAR    6.56       0          0          0          1

  
  ERROR 209: undefined object 8.60 at line 587 of [XSECT] section:
  10160            IRREGULAR    8.60       0          0          0          1

  
  ERROR 209: undefined object 6.56 at line 588 of [XSECT] section:
  10140            IRREGULAR    6.56       0          0          0          1

  
  ERROR 209: undefined object 9.60 at line 589 of [XSECT] section:
  10130            IRREGULAR    9.60       0          0          0          1

  
  ERROR 209: undefined object 8.60 at line 590 of [XSECT] section:
  10110            IRREGULAR    8.60       0          0          0          1

  
  ERROR 209: undefined object 12.85 at line 591 of [XSECT] section:
  10070            IRREGULAR    12.85      0          0          0          1

  
  ERROR 209: undefined object 7.00 at line 593 of [XSECT] section:
  10010            IRREGULAR    7.00       0          0          0          1

  
  ERROR 209: undefined object 6.50 at line 594 of [XSECT] section:
  10050            IRREGULAR    6.50       0          0          0          1

  
  ERROR 209: undefined object 12.85 at line 596 of [XSECT] section:
  10090            IRREGULAR    12.85      0          0          0          1

  
  ERROR 209: undefined object 11.02 at line 597 of [XSECT] section:
  10680            IRREGULAR    11.02      0          0          0          1

  
  ERROR 209: undefined object 9.90 at line 598 of [XSECT] section:
  41070            IRREGULAR    9.90       0          0          0          1

  
  ERROR 209: undefined object 5.50 at line 601 of [XSECT] section:
  41040            IRREGULAR    5.50       0          0          0          1

  
  ERROR 209: undefined object 8.70 at line 602 of [XSECT] section:
  41030            IRREGULAR    8.70       0          0          0          1

  
  ERROR 209: undefined object 11.00 at line 604 of [XSECT] section:
  41010            IRREGULAR    11.00      0          0          0          1

  
  ERROR 209: undefined object 10.00 at line 611 of [XSECT] section:
  45130            IRREGULAR    10.00      0          0          0          1

  
  ERROR 209: undefined object 24.40 at line 612 of [XSECT] section:
  45120            IRREGULAR    24.40      0          0          0          1

  
  ERROR 209: undefined object 18.60 at line 613 of [XSECT] section:
  45110            IRREGULAR    18.60      0          0          0          1

  
  ERROR 209: undefined object 19.00 at line 615 of [XSECT] section:
  45090            IRREGULAR    19.00      0          0          0          1

  
  ERROR 209: undefined object 10.00 at line 616 of [XSECT] section:
  45080            IRREGULAR    10.00      0          0          0          1

  
  Maximum error count exceeded.

  Analysis begun on:  Sat Mar  7 21:51:26 2026
  Analysis ended on:  Sat Mar  7 21:51:26 2026
  Total elapsed time: < 1 sec