
  EPA STORM WATER MANAGEMENT MODEL - VERSION 5.2 (Build 5.2.4)
  ------------------------------------------------------------

  
  ERROR 209: undefined object pipe2 at line 37 of [CONDUIT] section:
  pipe1            pipe2            Surface          50.00      0.0140     5.80       5.55       0          0

  
  ERROR 209: undefined object Surfacea at line 39 of [CONDUIT] section:
  1pipe            1a               Surfacea         50.00      0.0140     5.80       5.55       0          0

  
  ERROR 211: invalid number  at line 54 of [XSECT] section:
  212.1            RECT_OPEN    0          5.00       0          0          


  Analysis begun on:  Sat Mar  7 21:51:22 2026
  Analysis ended on:  Sat Mar  7 21:51:22 2026
  Total elapsed time: < 1 sec