
  EPA STORM WATER MANAGEMENT MODEL - VERSION 5.2 (Build 5.2.4)
  ------------------------------------------------------------

  
  ERROR 211: invalid number  at line 1821 of [XSECT] section:
  1187             CIRCULAR     0          0          0          0          1

  
  ERROR 211: invalid number  at line 1822 of [XSECT] section:
  1192             CIRCULAR     0          0          0          0          1

  
  ERROR 211: invalid number  at line 1823 of [XSECT] section:
  1193             CIRCULAR     0          0          0          0          1

  
  ERROR 211: invalid number  at line 1824 of [XSECT] section:
  1194             CIRCULAR     0          0          0          0          1

  
  ERROR 211: invalid number  at line 1825 of [XSECT] section:
  1195             CIRCULAR     0          0          0          0          1

  
  ERROR 211: invalid number  at line 1826 of [XSECT] section:
  1196             CIRCULAR     0          0          0          0          1

  
  ERROR 211: invalid number  at line 1827 of [XSECT] section:
  1197             CIRCULAR     0          0          0          0          1

  
  ERROR 211: invalid number  at line 1828 of [XSECT] section:
  1198             CIRCULAR     0          0          0          0          1

  
  ERROR 211: invalid number  at line 1829 of [XSECT] section:
  1199             CIRCULAR     0          0          0          0          1

  
  ERROR 211: invalid number  at line 1830 of [XSECT] section:
  1200             CIRCULAR     0          0          0          0          1

  
  ERROR 211: invalid number  at line 1832 of [XSECT] section:
  1202             CIRCULAR     0          0          0          0          1

  
  ERROR 211: invalid number  at line 1833 of [XSECT] section:
  1203             CIRCULAR     0          0          0          0          1

  
  ERROR 211: invalid number  at line 1834 of [XSECT] section:
  1204             CIRCULAR     0          0          0          0          1

  
  ERROR 211: invalid number  at line 1835 of [XSECT] section:
  1205             CIRCULAR     0          0          0          0          1

  
  ERROR 211: invalid number  at line 1836 of [XSECT] section:
  1206             CIRCULAR     0          0          0          0          1

  
  ERROR 211: invalid number  at line 1837 of [XSECT] section:
  1207             CIRCULAR     0          0          0          0          1

  
  ERROR 211: invalid number  at line 1838 of [XSECT] section:
  1208             CIRCULAR     0          0          0          0          1

  
  ERROR 211: invalid number  at line 1839 of [XSECT] section:
  1209             CIRCULAR     0          0          0          0          1

  
  ERROR 211: invalid number  at line 1840 of [XSECT] section:
  1210             CIRCULAR     0          0          0          0          1

  
  ERROR 211: invalid number  at line 1841 of [XSECT] section:
  1211             CIRCULAR     0          0          0          0          1


  Analysis begun on:  Sat Mar  7 21:51:26 2026
  Analysis ended on:  Sat Mar  7 21:51:26 2026
  Total elapsed time: < 1 sec