
  EPA STORM WATER MANAGEMENT MODEL - VERSION 5.2 (Build 5.2.4)
  ------------------------------------------------------------

  
  ERROR 209: undefined object ? at line 105 of [CONDUIT] section:
  9207P            9207O            ?                207.00     0.0130     145.17     144.58     0          0

  
  ERROR 209: undefined object ? at line 106 of [CONDUIT] section:
  9206P            9206O            ?                105.00     0.0130     144.58     144.25     0          0

  
  ERROR 209: undefined object ? at line 107 of [CONDUIT] section:
  9205P            9205O            ?                260.00     0.0130     144.25     143.52     0          0

  
  ERROR 209: undefined object ? at line 108 of [CONDUIT] section:
  8403P            8403O            ?                232.00     0.0130     152.53     152.19     0          0

  
  ERROR 209: undefined object ? at line 109 of [CONDUIT] section:
  8401P            8401O            ?                200.00     0.0130     148.00     147.40     0          0

  
  ERROR 209: undefined object ? at line 110 of [CONDUIT] section:
  8406P            8406O            ?                57.00      0.0130     152.19     152.02     0          0

  
  ERROR 209: undefined object ? at line 111 of [CONDUIT] section:
  8402P            8402O            ?                300.00     0.0130     147.40     146.55     0          0

  
  ERROR 209: undefined object ? at line 112 of [CONDUIT] section:
  9199P            9199O            ?                312.00     0.0130     142.17     140.60     0          0

  
  ERROR 209: undefined object ? at line 113 of [CONDUIT] section:
  9198P            9198O            ?                165.00     0.0130     142.67     142.17     0          0

  
  ERROR 209: undefined object ? at line 114 of [CONDUIT] section:
  8591P            8591O            ?                250.00     0.0130     160.98     160.23     0          0

  
  ERROR 209: undefined object ? at line 115 of [CONDUIT] section:
  8592P            8592O            ?                263.00     0.0130     158.73     158.11     0          0

  
  ERROR 209: undefined object ? at line 116 of [CONDUIT] section:
  8644P            8644O            ?                210.00     0.0130     154.61     153.77     0          0

  
  ERROR 209: undefined object ? at line 117 of [CONDUIT] section:
  8647P            8647O            ?                621.00     0.0130     153.77     151.33     0          0

  
  ERROR 209: undefined object ? at line 118 of [CONDUIT] section:
  8648P            8648O            ?                264.00     0.0130     152.17     151.33     0          0

  
  ERROR 209: undefined object ? at line 119 of [CONDUIT] section:
  8645P            8645O            ?                190.00     0.0130     154.44     153.77     0          0

  
  ERROR 209: undefined object ? at line 120 of [CONDUIT] section:
  8649P            8649O            ?                499.00     0.0130     151.33     150.26     0          0

  
  ERROR 209: undefined object ? at line 121 of [CONDUIT] section:
  8652P            8652O            ?                27.00      0.0130     146.96     149.96     0          0

  
  ERROR 209: undefined object ? at line 122 of [CONDUIT] section:
  8650P            8650O            ?                260.00     0.0130     151.09     150.26     0          0

  
  ERROR 209: undefined object ? at line 123 of [CONDUIT] section:
  8653P            8653O            ?                290.00     0.0130     149.96     149.35     0          0

  
  ERROR 209: undefined object ? at line 124 of [CONDUIT] section:
  8651P            8651O            ?                300.00     0.0130     153.34     151.09     0          0

  
  ERROR 209: undefined object ? at line 125 of [CONDUIT] section:
  8654P            8654O            ?                145.00     0.0130     149.35     149.04     0          0

  
  ERROR 209: undefined object ? at line 126 of [CONDUIT] section:
  8656P            8656O            ?                295.00     0.0130     153.19     149.35     0          0

  
  ERROR 209: undefined object ? at line 127 of [CONDUIT] section:
  8657P            8657O            ?                292.00     0.0130     154.94     153.19     0          0

  
  ERROR 209: undefined object ? at line 128 of [CONDUIT] section:
  8655P            8655O            ?                610.00     0.0130     149.04     147.76     0          0

  
  ERROR 209: undefined object ? at line 129 of [CONDUIT] section:
  8582P            8582O            ?                161.00     0.0130     146.07     145.29     0          0

  
  ERROR 209: undefined object ? at line 130 of [CONDUIT] section:
  8581P            8581O            ?                280.00     0.0130     147.53     146.07     0          0

  
  ERROR 209: undefined object ? at line 131 of [CONDUIT] section:
  8580P            8580O            ?                245.00     0.0130     149.00     147.53     0          0

  
  ERROR 209: undefined object ? at line 132 of [CONDUIT] section:
  8506P            8506O            ?                464.00     0.0130     179.89     177.11     0          0

  
  ERROR 209: undefined object ? at line 133 of [CONDUIT] section:
  8507P            8507O            ?                464.00     0.0130     177.11     174.32     0          0

  
  ERROR 209: undefined object ? at line 134 of [CONDUIT] section:
  8510P            8510O            ?                264.00     0.0130     180.11     178.79     0          0

  
  ERROR 209: undefined object ? at line 135 of [CONDUIT] section:
  8511P            8511O            ?                253.00     0.0130     178.79     177.52     0          0

  
  ERROR 209: undefined object ? at line 136 of [CONDUIT] section:
  8490P            8490O            ?                274.00     0.0130     175.60     173.96     0          0

  
  ERROR 209: undefined object ? at line 137 of [CONDUIT] section:
  8492P            8492O            ?                400.00     0.0130     176.21     173.98     0          0

  
  ERROR 209: undefined object ? at line 138 of [CONDUIT] section:
  8491P            8491O            ?                343.00     0.0130     171.74     169.68     0          0

  
  ERROR 209: undefined object ? at line 139 of [CONDUIT] section:
  8497P            8497O            ?                313.00     0.0130     169.68     167.81     0          0

  
  ERROR 209: undefined object ? at line 140 of [CONDUIT] section:
  8498P            8498O            ?                285.00     0.0130     167.81     166.21     0          0

  
  ERROR 209: undefined object ? at line 141 of [CONDUIT] section:
  8499P            8499O            ?                270.00     0.0130     170.81     167.81     0          0

  
  ERROR 209: undefined object ? at line 142 of [CONDUIT] section:
  8500P            8500O            ?                260.00     0.0130     174.71     170.81     0          0

  
  ERROR 209: undefined object ? at line 143 of [CONDUIT] section:
  8501P            8501O            ?                260.00     0.0130     176.27     174.71     0          0

  
  ERROR 209: undefined object ? at line 144 of [CONDUIT] section:
  8503P            8503O            ?                264.00     0.0130     169.50     167.92     0          0

  
  ERROR 209: undefined object ? at line 145 of [CONDUIT] section:
  8502P            8502O            ?                820.00     0.0130     166.21     164.24     0          0

  
  ERROR 209: undefined object ? at line 146 of [CONDUIT] section:
  8518P            8518O            ?                212.00     0.0130     164.24     163.73     0          0

  
  ERROR 209: undefined object ? at line 147 of [CONDUIT] section:
  8520P            8520O            ?                260.00     0.0130     166.02     164.98     0          0

  
  ERROR 209: undefined object ? at line 148 of [CONDUIT] section:
  8519P            8519O            ?                196.00     0.0130     163.73     163.26     0          0

  
  ERROR 209: undefined object ? at line 149 of [CONDUIT] section:
  8587P            8587O            ?                260.00     0.0130     163.26     162.27     0          0

  
  ERROR 209: undefined object ? at line 150 of [CONDUIT] section:
  8588P            8588O            ?                270.00     0.0130     162.27     161.14     0          0

  
  ERROR 209: undefined object ? at line 151 of [CONDUIT] section:
  8523P            8523O            ?                273.00     0.0130     165.64     164.00     0          0

  
  ERROR 209: undefined object ? at line 152 of [CONDUIT] section:
  8522P            8522O            ?                260.00     0.0130     167.20     165.64     0          0

  
  ERROR 209: undefined object ? at line 153 of [CONDUIT] section:
  8521P            8521O            ?                245.00     0.0130     168.92     167.20     0          0

  
  ERROR 209: undefined object ? at line 154 of [CONDUIT] section:
  8508P            8508O            ?                265.00     0.0130     174.32     171.94     0          0

  
  ERROR 209: undefined object ? at line 155 of [CONDUIT] section:
  8517P            8517O            ?                803.00     0.0130     169.84     167.00     0          0

  
  ERROR 209: undefined object ? at line 156 of [CONDUIT] section:
  8509P            8509O            ?                242.00     0.0130     174.36     171.94     0          0

  
  ERROR 209: undefined object ? at line 157 of [CONDUIT] section:
  8512P            8512O            ?                405.00     0.0130     177.52     175.90     0          0

  
  ERROR 209: undefined object ? at line 158 of [CONDUIT] section:
  8513P            8513O            ?                284.00     0.0130     177.70     176.00     0          0

  
  ERROR 209: undefined object ? at line 159 of [CONDUIT] section:
  8514P            8514O            ?                260.00     0.0130     172.00     170.70     0          0

  
  ERROR 209: undefined object ? at line 160 of [CONDUIT] section:
  8515P            8515O            ?                270.00     0.0130     167.00     165.10     0          0

  
  ERROR 209: undefined object ? at line 161 of [CONDUIT] section:
  8516P            8516O            ?                250.00     0.0130     165.10     163.97     0          0

  
  ERROR 209: undefined object ? at line 162 of [CONDUIT] section:
  8596P            8596O            ?                249.00     0.0130     163.97     162.85     0          0

  
  ERROR 209: undefined object ? at line 163 of [CONDUIT] section:
  8597P            8597O            ?                258.00     0.0130     162.85     161.69     0          0

  
  ERROR 209: undefined object ? at line 164 of [CONDUIT] section:
  8598P            8598O            ?                260.00     0.0130     161.69     160.52     0          0

  
  ERROR 209: undefined object ? at line 165 of [CONDUIT] section:
  8600P            8600O            ?                393.00     0.0130     167.50     163.55     0          0

  
  ERROR 209: undefined object ? at line 166 of [CONDUIT] section:
  8599P            8599O            ?                271.00     0.0130     160.52     159.03     0          0

  
  ERROR 209: undefined object ? at line 167 of [CONDUIT] section:
  8601P            8601O            ?                250.00     0.0130     159.03     157.65     0          0

  
  ERROR 209: undefined object ? at line 168 of [CONDUIT] section:
  8602P            8602O            ?                263.00     0.0130     157.57     156.92     0          0

  
  ERROR 209: undefined object ? at line 169 of [CONDUIT] section:
  8603P            8603O            ?                150.00     0.0130     156.92     156.54     0          0

  
  ERROR 209: undefined object ? at line 170 of [CONDUIT] section:
  8604P            8604O            ?                158.00     0.0130     156.54     156.14     0          0

  
  ERROR 209: undefined object ? at line 171 of [CONDUIT] section:
  8595P            8595O            ?                260.00     0.0130     157.18     156.37     0          0

  
  ERROR 209: undefined object ? at line 172 of [CONDUIT] section:
  8594P            8594O            ?                260.00     0.0130     157.67     157.18     0          0

  
  ERROR 209: undefined object ? at line 173 of [CONDUIT] section:
  8593P            8593O            ?                260.00     0.0130     158.11     157.67     0          0

  
  ERROR 209: undefined object ? at line 174 of [CONDUIT] section:
  8622P            8622O            ?                250.00     0.0130     156.33     155.70     0          0

  
  ERROR 209: undefined object ? at line 175 of [CONDUIT] section:
  8623P            8623O            ?                69.00      0.0130     155.70     155.51     0          0

  
  ERROR 209: undefined object ? at line 176 of [CONDUIT] section:
  8608P            8608O            ?                187.00     0.0130     162.54     161.60     0          0

  
  ERROR 209: undefined object ? at line 177 of [CONDUIT] section:
  8607P            8607O            ?                230.00     0.0130     163.69     162.54     0          0

  
  ERROR 209: undefined object ? at line 178 of [CONDUIT] section:
  8606P            8606O            ?                260.00     0.0130     164.99     163.69     0          0

  
  ERROR 209: undefined object ? at line 179 of [CONDUIT] section:
  8605P            8605O            ?                260.00     0.0130     166.29     164.99     0          0

  
  ERROR 209: undefined object ? at line 180 of [CONDUIT] section:
  8609P            8609O            ?                271.00     0.0130     160.55     159.60     0          0

  
  ERROR 209: undefined object ? at line 181 of [CONDUIT] section:
  8646P            8646O            ?                135.00     0.0130     154.91     154.44     0          0

  
  ERROR 209: undefined object ? at line 182 of [CONDUIT] section:
  8631P            8631O            ?                216.00     0.0130     154.51     154.13     0          0


  Analysis begun on:  Sat Mar  7 21:51:22 2026
  Analysis ended on:  Sat Mar  7 21:51:22 2026
  Total elapsed time: < 1 sec