
  EPA STORM WATER MANAGEMENT MODEL - VERSION 5.2 (Build 5.2.4)
  ------------------------------------------------------------

  
  ERROR 207: duplicate ID name 8119 at line 2914 of [PUMP] section:
  8119             S116             J116             PC_8119    ON       -0.04      -0.88     

  
  ERROR 207: duplicate ID name 8885 at line 3115 of [PUMP] section:
  8885             Node_8855        Node_11931194    PC_8885    ON       -2.70      -3.70     

  
  ERROR 207: duplicate ID name 8553 at line 3203 of [PUMP] section:
  8553             Node_8699        Node_14941335    PC_8553    ON       -8.29      -12.37    


  Analysis begun on:  Sat Mar  7 21:51:23 2026
  Analysis ended on:  Sat Mar  7 21:51:23 2026
  Total elapsed time: < 1 sec