
  EPA STORM WATER MANAGEMENT MODEL - VERSION 5.2 (Build 5.2.4)
  ------------------------------------------------------------

  
  ERROR 209: undefined object ? at line 31 of [CONDUIT] section:
  203              ?                ?                1000.00    0.0140     0          0          0          0

  
  ERROR 209: undefined object ? at line 32 of [CONDUIT] section:
  206              ?                ?                1000.00    0.0140     0          0          0          0

  
  ERROR 209: undefined object ? at line 33 of [CONDUIT] section:
  207              ?                ?                0          0          0          0          0          0

  
  ERROR 211: invalid number  at line 40 of [XSECT] section:
  207              CIRCULAR     0          0          0          0          1


  Analysis begun on:  Sat Mar  7 21:51:27 2026
  Analysis ended on:  Sat Mar  7 21:51:27 2026
  Total elapsed time: < 1 sec