
  EPA STORM WATER MANAGEMENT MODEL - VERSION 5.2 (Build 5.2.4)
  ------------------------------------------------------------

  
  ERROR 209: undefined object 0 at line 110 of [XSECT] section:
  5                IRREGULAR    0          0          0          0          1

  
  ERROR 209: undefined object 0 at line 111 of [XSECT] section:
  6                IRREGULAR    0          0          0          0          1

  
  ERROR 209: undefined object 0 at line 112 of [XSECT] section:
  7                IRREGULAR    0          0          0          0          1

  
  ERROR 209: undefined object 0 at line 113 of [XSECT] section:
  15               IRREGULAR    0          0          0          0          1

  
  ERROR 209: undefined object 0 at line 114 of [XSECT] section:
  16               IRREGULAR    0          0          0          0          1

  
  ERROR 209: undefined object 0 at line 115 of [XSECT] section:
  17               IRREGULAR    0          0          0          0          1

  
  ERROR 209: undefined object 0 at line 116 of [XSECT] section:
  22               IRREGULAR    0          0          0          0          1

  
  ERROR 209: undefined object 0 at line 117 of [XSECT] section:
  24               IRREGULAR    0          0          0          0          1

  
  ERROR 209: undefined object 0 at line 118 of [XSECT] section:
  26               IRREGULAR    0          0          0          0          1

  
  ERROR 209: undefined object 0 at line 119 of [XSECT] section:
  28               IRREGULAR    0          0          0          0          1

  
  ERROR 209: undefined object 0 at line 120 of [XSECT] section:
  30               IRREGULAR    0          0          0          0          1

  
  ERROR 209: undefined object 0 at line 121 of [XSECT] section:
  32               IRREGULAR    0          0          0          0          1

  
  ERROR 209: undefined object 0 at line 122 of [XSECT] section:
  34               IRREGULAR    0          0          0          0          1

  
  ERROR 209: undefined object 0 at line 123 of [XSECT] section:
  36               IRREGULAR    0          0          0          0          1

  
  ERROR 209: undefined object 0 at line 124 of [XSECT] section:
  38               IRREGULAR    0          0          0          0          1

  
  ERROR 209: undefined object 0 at line 125 of [XSECT] section:
  40               IRREGULAR    0          0          0          0          1

  
  ERROR 209: undefined object 0 at line 126 of [XSECT] section:
  42               IRREGULAR    0          0          0          0          1

  
  ERROR 209: undefined object 0 at line 127 of [XSECT] section:
  44               IRREGULAR    0          0          0          0          1

  
  ERROR 209: undefined object 0 at line 128 of [XSECT] section:
  46               IRREGULAR    0          0          0          0          1

  
  ERROR 209: undefined object 0 at line 129 of [XSECT] section:
  48               IRREGULAR    0          0          0          0          1

  
  ERROR 209: undefined object 0 at line 130 of [XSECT] section:
  50               IRREGULAR    0          0          0          0          1

  
  ERROR 209: undefined object 0 at line 131 of [XSECT] section:
  52               IRREGULAR    0          0          0          0          1

  
  ERROR 209: undefined object 0 at line 132 of [XSECT] section:
  54               IRREGULAR    0          0          0          0          1

  
  ERROR 209: undefined object 0 at line 133 of [XSECT] section:
  56               IRREGULAR    0          0          0          0          1

  
  ERROR 209: undefined object 0 at line 134 of [XSECT] section:
  58               IRREGULAR    0          0          0          0          1

  
  ERROR 209: undefined object 0 at line 135 of [XSECT] section:
  60               IRREGULAR    0          0          0          0          1

  
  ERROR 209: undefined object 0 at line 136 of [XSECT] section:
  62               IRREGULAR    0          0          0          0          1

  
  ERROR 209: undefined object 0 at line 137 of [XSECT] section:
  64               IRREGULAR    0          0          0          0          1

  
  ERROR 209: undefined object 0 at line 138 of [XSECT] section:
  66               IRREGULAR    0          0          0          0          1

  
  ERROR 209: undefined object 0 at line 139 of [XSECT] section:
  68               IRREGULAR    0          0          0          0          1

  
  ERROR 209: undefined object 0 at line 140 of [XSECT] section:
  70               IRREGULAR    0          0          0          0          1

  
  ERROR 209: undefined object 0 at line 141 of [XSECT] section:
  72               IRREGULAR    0          0          0          0          1

  
  ERROR 209: undefined object 0 at line 142 of [XSECT] section:
  74               IRREGULAR    0          0          0          0          1

  
  ERROR 209: undefined object 0 at line 143 of [XSECT] section:
  76               IRREGULAR    0          0          0          0          1

  
  ERROR 209: undefined object 0 at line 144 of [XSECT] section:
  78               IRREGULAR    0          0          0          0          1

  
  ERROR 209: undefined object 0 at line 145 of [XSECT] section:
  80               IRREGULAR    0          0          0          0          1

  
  ERROR 209: undefined object 0 at line 146 of [XSECT] section:
  81               IRREGULAR    0          0          0          0          1

  
  ERROR 209: undefined object 0 at line 147 of [XSECT] section:
  83               IRREGULAR    0          0          0          0          1


  Analysis begun on:  Sat Mar  7 21:51:32 2026
  Analysis ended on:  Sat Mar  7 21:51:32 2026
  Total elapsed time: < 1 sec