
  EPA STORM WATER MANAGEMENT MODEL - VERSION 5.2 (Build 5.2.4)
  ------------------------------------------------------------

  
  ERROR 209: undefined object Node_22016 at line 3223 of [CONDUIT] section:
  LN22016          Node_22016       Node_1000971     239.21     0.0130     0          0          0          0

  
  ERROR 209: undefined object Node_22004 at line 3224 of [CONDUIT] section:
  LN22004          Node_22004       Node_1002962     124.00     0.0130     0          0          0          0

  
  ERROR 209: undefined object Node_26215 at line 3225 of [CONDUIT] section:
  LN26215          Node_26215       Node_10041000    273.24     0.0130     0          0          0          0

  
  ERROR 209: undefined object Node_26214 at line 3226 of [CONDUIT] section:
  LN26214          Node_26214       Node_10061004    90.14      0.0130     0          0          0          0

  
  ERROR 209: undefined object Node_26203 at line 3227 of [CONDUIT] section:
  LN26203          Node_26203       Node_10081006    245.17     0.0130     0          0          0          0

  
  ERROR 209: undefined object Node_26202 at line 3228 of [CONDUIT] section:
  LN26202          Node_26202       Node_10101008    130.10     0.0130     0          0          0          0

  
  ERROR 209: undefined object Node_26175 at line 3229 of [CONDUIT] section:
  LN26175          Node_26175       Node_10121010    164.11     0.0130     0          0          0          0

  
  ERROR 209: undefined object Node_26174 at line 3230 of [CONDUIT] section:
  LN26174          Node_26174       Node_10141012    307.28     0.0130     0          0          0          0

  
  ERROR 209: undefined object Node_26173 at line 3231 of [CONDUIT] section:
  LN26173          Node_26173       Node_10161014    282.14     0.0130     0          0          0          0

  
  ERROR 209: undefined object Node_26172 at line 3232 of [CONDUIT] section:
  LN26172          Node_26172       Node_10181016    277.30     0.0130     0          0          0          0

  
  ERROR 209: undefined object Node_26166 at line 3233 of [CONDUIT] section:
  LN26166          Node_26166       Node_10201018    147.01     0.0130     0          0          0          0

  
  ERROR 209: undefined object Node_26165 at line 3234 of [CONDUIT] section:
  LN26165          Node_26165       Node_10221020    154.54     0.0130     0          0          0          0

  
  ERROR 209: undefined object Node_26164 at line 3235 of [CONDUIT] section:
  LN26164          Node_26164       Node_10241022    181.40     0.0130     0          0          0          0

  
  ERROR 209: undefined object Node_26151 at line 3236 of [CONDUIT] section:
  LN26151          Node_26151       Node_10261024    179.45     0.0130     0          0          0          0

  
  ERROR 209: undefined object Node_26150 at line 3237 of [CONDUIT] section:
  LN26150          Node_26150       Node_10281026    225.06     0.0130     0          0          0          0

  
  ERROR 209: undefined object Node_26149 at line 3238 of [CONDUIT] section:
  LN26149          Node_26149       Node_10301028    51.31      0.0130     0          0          0          0

  
  ERROR 209: undefined object Node_2011 at line 3240 of [CONDUIT] section:
  LS02011          Node_2011        Node_10331034    271.67     0.0130     0          0          0          0

  
  ERROR 209: undefined object ? at line 3241 of [CONDUIT] section:
  LS02010          ?                AA5006           328.27     0.0130     0          0          0          0

  
  ERROR 209: undefined object Node_2009 at line 3242 of [CONDUIT] section:
  LS02009          Node_2009        Node_10371038    519.39     0.0130     0          0          0          0

  
  ERROR 209: undefined object ? at line 3243 of [CONDUIT] section:
  LS02008          ?                A59001           461.62     0.0130     0          0          0          0

  
  ERROR 209: undefined object Node_2007 at line 3244 of [CONDUIT] section:
  LS02007          Node_2007        Node_10421040    174.63     0.0130     0          0          0          0

  
  ERROR 209: undefined object ? at line 3245 of [CONDUIT] section:
  LS02006          ?                A59002           56.29      0.0130     0          0          0          0

  
  ERROR 209: undefined object Node_2005 at line 3246 of [CONDUIT] section:
  LS02005          Node_2005        Node_10461044    130.51     0.0130     0          0          0          0

  
  ERROR 209: undefined object ? at line 3247 of [CONDUIT] section:
  LS02004          ?                A59003           21.63      0.0130     0          0          0          0

  
  ERROR 209: undefined object Node_2003 at line 3248 of [CONDUIT] section:
  LS02003          Node_2003        Node_10501048    351.73     0.0130     0          0          0          0

  
  ERROR 209: undefined object ? at line 3249 of [CONDUIT] section:
  LS02002          ?                A59004           616.03     0.0130     0          0          0          0

  
  ERROR 209: undefined object Node_2001 at line 3250 of [CONDUIT] section:
  LS02001          Node_2001        Node_10541052    665.05     0.0130     0          0          0          0

  
  ERROR 209: undefined object Node_22059 at line 3251 of [CONDUIT] section:
  LO22059          Node_22059       Node_10561002    580.59     0.0130     0          0          0          0

  
  ERROR 209: undefined object Node_22057 at line 3252 of [CONDUIT] section:
  LO22057          Node_22057       Node_10581059    86.98      0.0130     0          0          0          0

  
  ERROR 209: undefined object Node_22056 at line 3253 of [CONDUIT] section:
  LO22056          Node_22056       Node_10611058    913.78     0.0130     0          0          0          0

  
  ERROR 209: undefined object Node_22004 at line 3254 of [CONDUIT] section:
  LQ22004          Node_22004       Node_10631064    194.26     0.0130     0          0          0          0

  
  ERROR 209: undefined object Node_26013 at line 3255 of [CONDUIT] section:
  LO26013          Node_26013       Node_10661067    35.11      0.0130     0          0          0          0

  
  ERROR 209: undefined object Node_26012 at line 3256 of [CONDUIT] section:
  LO26012          Node_26012       Node_10671069    773.31     0.0130     0          0          0          0

  
  ERROR 209: undefined object Node_26011 at line 3257 of [CONDUIT] section:
  LO26011          Node_26011       Node_10711072    193.24     0.0130     0          0          0          0

  
  ERROR 209: undefined object Node_26010 at line 3258 of [CONDUIT] section:
  LO26010          Node_26010       Node_10721074    184.55     0.0130     0          0          0          0

  
  ERROR 209: undefined object Node_26009 at line 3259 of [CONDUIT] section:
  LO26009          Node_26009       Node_10741076    850.37     0.0130     0          0          0          0

  
  ERROR 209: undefined object Node_26008 at line 3260 of [CONDUIT] section:
  LO26008          Node_26008       Node_10761061    831.95     0.0130     0          0          0          0

  
  ERROR 209: undefined object Node_26016 at line 3261 of [CONDUIT] section:
  LP26016          Node_26016       Node_10691071    750.97     0.0130     0          0          0          0

  
  ERROR 209: undefined object Node_26001 at line 3262 of [CONDUIT] section:
  LP26001          Node_26001       Node_10801081    288.67     0.0130     0          0          0          0

  
  ERROR 209: undefined object Node_6023 at line 3263 of [CONDUIT] section:
  LR06023          Node_6023        Node_1083533     18.25      0.0130     0          0          0          0

  
  ERROR 209: undefined object Node_6022 at line 3264 of [CONDUIT] section:
  LR06022          Node_6022        Node_10851083    27.17      0.0130     0          0          0          0

  
  ERROR 209: undefined object Node_6021 at line 3265 of [CONDUIT] section:
  LR06021          Node_6021        Node_10871085    197.29     0.0130     0          0          0          0

  
  ERROR 209: undefined object Node_6020 at line 3266 of [CONDUIT] section:
  LR06020          Node_6020        Node_10891087    355.26     0.0130     0          0          0          0

  
  ERROR 209: undefined object Node_6019 at line 3267 of [CONDUIT] section:
  LR06019          Node_6019        Node_10911089    426.52     0.0130     0          0          0          0

  
  ERROR 209: undefined object Node_6018 at line 3268 of [CONDUIT] section:
  LR06018          Node_6018        Node_10931091    321.16     0.0130     0          0          0          0

  
  ERROR 209: undefined object Node_6017 at line 3269 of [CONDUIT] section:
  LR06017          Node_6017        Node_10951093    336.24     0.0130     0          0          0          0

  
  ERROR 209: undefined object Node_6010 at line 3271 of [CONDUIT] section:
  LR06010          Node_6010        Node_1098492     835.14     0.0130     0          0          0          0

  
  ERROR 209: undefined object Node_6008 at line 3272 of [CONDUIT] section:
  LR06008          Node_6008        Node_11001101    1112.85    0.0130     0          0          0          0

  
  ERROR 209: undefined object Node_6004 at line 3274 of [CONDUIT] section:
  LR06004          Node_6004        Node_11031105    203.02     0.0130     0          0          0          0

  
  ERROR 209: undefined object Node_6003 at line 3275 of [CONDUIT] section:
  LR06003          Node_6003        Node_11051107    46.23      0.0130     0          0          0          0

  
  ERROR 209: undefined object Node_6002 at line 3276 of [CONDUIT] section:
  LR06002          Node_6002        Node_11071109    110.00     0.0130     0          0          0          0

  
  ERROR 209: undefined object Node_6001 at line 3277 of [CONDUIT] section:
  LR06001          Node_6001        Node_11091100    537.03     0.0130     0          0          0          0

  
  ERROR 209: undefined object Node_14064 at line 3279 of [CONDUIT] section:
  LU14064          Node_14064       Node_11141115    506.01     0.0130     0          0          0          0

  
  ERROR 209: undefined object Node_14062 at line 3280 of [CONDUIT] section:
  LU14062          Node_14062       Node_11171114    170.36     0.0130     0          0          0          0

  
  ERROR 209: undefined object Node_14060 at line 3281 of [CONDUIT] section:
  LU14060          Node_14060       Node_11191117    231.55     0.0130     0          0          0          0

  
  ERROR 209: undefined object Node_14059 at line 3282 of [CONDUIT] section:
  LU14059          Node_14059       Node_11211119    379.38     0.0130     0          0          0          0

  
  ERROR 209: undefined object Node_14058 at line 3283 of [CONDUIT] section:
  LU14058          Node_14058       Node_11231121    380.34     0.0130     0          0          0          0

  
  ERROR 209: undefined object Node_14056 at line 3284 of [CONDUIT] section:
  LU14056          Node_14056       Node_11251123    401.78     0.0130     0          0          0          0

  
  ERROR 209: undefined object Node_14043 at line 3285 of [CONDUIT] section:
  LU14043          Node_14043       Node_11271125    416.39     0.0130     0          0          0          0

  
  ERROR 209: undefined object Node_14042 at line 3286 of [CONDUIT] section:
  LU14042          Node_14042       Node_11291127    298.72     0.0130     0          0          0          0

  
  ERROR 209: undefined object Node_14041 at line 3287 of [CONDUIT] section:
  LU14041          Node_14041       Node_11311129    258.16     0.0130     0          0          0          0

  
  ERROR 209: undefined object Node_14004 at line 3288 of [CONDUIT] section:
  LU14004          Node_14004       Node_11151133    487.54     0.0130     0          0          0          0

  
  ERROR 209: undefined object Node_18011 at line 3289 of [CONDUIT] section:
  LV18011          Node_18011       Node_11351136    227.85     0.0130     0          0          0          0

  
  ERROR 209: undefined object Node_18010 at line 3290 of [CONDUIT] section:
  LV18010          Node_18010       Node_11381135    377.19     0.0130     0          0          0          0

  
  ERROR 209: undefined object Node_18009 at line 3291 of [CONDUIT] section:
  LV18009          Node_18009       Node_11401138    203.12     0.0130     0          0          0          0

  
  ERROR 209: undefined object Node_30110 at line 3292 of [CONDUIT] section:
  LK30110          Node_30110       Node_11421143    353.92     0.0130     0          0          0          0

  
  ERROR 209: undefined object Node_23127 at line 3293 of [CONDUIT] section:
  LN23127          Node_23127       Node_11451146    353.41     0.0130     0          0          0          0

  
  ERROR 209: undefined object Node_23126 at line 3294 of [CONDUIT] section:
  LN23126          Node_23126       Node_11461148    337.33     0.0130     0          0          0          0

  
  ERROR 209: undefined object Node_23124 at line 3295 of [CONDUIT] section:
  LN23124          Node_23124       Node_11501151    34.00      0.0130     0          0          0          0

  
  ERROR 209: undefined object Node_23123 at line 3296 of [CONDUIT] section:
  LN23123          Node_23123       Node_11511153    168.19     0.0130     0          0          0          0

  
  ERROR 209: undefined object Node_23121 at line 3297 of [CONDUIT] section:
  LN23121          Node_23121       Node_11551156    254.77     0.0130     0          0          0          0

  
  ERROR 209: undefined object Node_23120 at line 3298 of [CONDUIT] section:
  LN23120          Node_23120       Node_11561158    436.02     0.0130     0          0          0          0

  
  ERROR 209: undefined object Node_23119 at line 3299 of [CONDUIT] section:
  LN23119          Node_23119       Node_11581160    374.01     0.0130     0          0          0          0

  
  ERROR 209: undefined object Node_23118 at line 3300 of [CONDUIT] section:
  LN23118          Node_23118       Node_11601162    104.69     0.0130     0          0          0          0

  
  ERROR 209: undefined object Node_23080 at line 3301 of [CONDUIT] section:
  LN23080          Node_23080       Node_11641165    278.03     0.0130     0          0          0          0

  
  ERROR 209: undefined object Node_23079 at line 3302 of [CONDUIT] section:
  LN23079          Node_23079       Node_11671164    322.26     0.0130     0          0          0          0

  
  ERROR 209: undefined object Node_23078 at line 3303 of [CONDUIT] section:
  LN23078          Node_23078       Node_11621167    231.00     0.0130     0          0          0          0

  
  ERROR 209: undefined object Node_14083 at line 3304 of [CONDUIT] section:
  LV14083          Node_14083       Node_11701131    338.78     0.0130     0          0          0          0

  
  ERROR 209: undefined object Node_14067 at line 3305 of [CONDUIT] section:
  LV14067          Node_14067       Node_11721170    423.06     0.0130     0          0          0          0

  
  ERROR 209: undefined object Node_14066 at line 3306 of [CONDUIT] section:
  LV14066          Node_14066       Node_11741172    434.66     0.0130     0          0          0          0

  
  ERROR 209: undefined object Node_14065 at line 3307 of [CONDUIT] section:
  LV14065          Node_14065       Node_11761174    406.65     0.0130     0          0          0          0

  
  ERROR 209: undefined object Node_14058 at line 3308 of [CONDUIT] section:
  LV14058          Node_14058       Node_11781176    161.05     0.0130     0          0          0          0

  
  ERROR 209: undefined object Node_14057 at line 3309 of [CONDUIT] section:
  LV14057          Node_14057       Node_11361178    301.08     0.0130     0          0          0          0

  
  ERROR 209: undefined object Node_18005 at line 3310 of [CONDUIT] section:
  LJ18005          Node_18005       Node_11811182    157.88     0.0130     0          0          0          0

  
  ERROR 209: undefined object Node_18004 at line 3311 of [CONDUIT] section:
  LJ18004          Node_18004       Node_11841181    135.20     0.0130     0          0          0          0

  
  ERROR 209: undefined object Node_18001 at line 3312 of [CONDUIT] section:
  LJ18001          Node_18001       Node_11861184    301.18     0.0130     0          0          0          0

  
  ERROR 209: undefined object Node_14001 at line 3313 of [CONDUIT] section:
  LV14001          Node_14001       Node_11881140    261.00     0.0130     0          0          0          0

  
  ERROR 209: undefined object Node_22054 at line 3314 of [CONDUIT] section:
  LJ22054          Node_22054       Node_1190666     665.16     0.0130     0          0          0          0

  
  ERROR 209: undefined object Node_22053 at line 3315 of [CONDUIT] section:
  LJ22053          Node_22053       Node_11921193    320.00     0.0130     0          0          0          0

  
  ERROR 209: undefined object Node_22052 at line 3316 of [CONDUIT] section:
  LJ22052          Node_22052       Node_11931190    189.01     0.0130     0          0          0          0

  
  ERROR 209: undefined object Node_22045 at line 3317 of [CONDUIT] section:
  LJ22045          Node_22045       Node_11961190    485.45     0.0130     0          0          0          0

  
  ERROR 209: undefined object Node_22025 at line 3319 of [CONDUIT] section:
  LJ22025          Node_22025       Node_11991192    416.83     0.0130     0          0          0          0

  
  ERROR 209: undefined object Node_22024 at line 3320 of [CONDUIT] section:
  LJ22024          Node_22024       Node_12011199    79.93      0.0130     0          0          0          0

  
  ERROR 209: undefined object Node_22023 at line 3321 of [CONDUIT] section:
  LJ22023          Node_22023       Node_12031201    397.29     0.0130     0          0          0          0

  
  ERROR 209: undefined object Node_22020 at line 3322 of [CONDUIT] section:
  LJ22020          Node_22020       Node_12051203    300.95     0.0130     0          0          0          0

  
  ERROR 209: undefined object Node_22019 at line 3323 of [CONDUIT] section:
  LJ22019          Node_22019       Node_12071205    479.59     0.0130     0          0          0          0

  
  ERROR 209: undefined object Node_22018 at line 3324 of [CONDUIT] section:
  LJ22018          Node_22018       Node_11821207    371.70     0.0130     0          0          0          0

  
  ERROR 209: undefined object Node_26015 at line 3325 of [CONDUIT] section:
  LQ26015          Node_26015       Node_12101081    195.50     0.0130     0          0          0          0

  
  ERROR 209: undefined object Node_26014 at line 3326 of [CONDUIT] section:
  LQ26014          Node_26014       Node_12121210    243.77     0.0130     0          0          0          0

  
  ERROR 209: undefined object Node_26013 at line 3327 of [CONDUIT] section:
  LQ26013          Node_26013       Node_12141212    402.02     0.0130     0          0          0          0

  
  Maximum error count exceeded.

  Analysis begun on:  Sat Mar  7 21:51:26 2026
  Analysis ended on:  Sat Mar  7 21:51:26 2026
  Total elapsed time: < 1 sec