
  EPA STORM WATER MANAGEMENT MODEL - VERSION 5.2 (Build 5.2.4)
  ------------------------------------------------------------

  
  ERROR 211: invalid number  at line 123 of [XSECT] section:
  MUL1             RECT_CLOSED  0          0          0          0          

  
  ERROR 211: invalid number  at line 124 of [XSECT] section:
  MUL2             RECT_CLOSED  0          0          0          0          

  
  ERROR 211: invalid number  at line 125 of [XSECT] section:
  MUL3             RECT_OPEN    0          2.00       0          0          

  
  ERROR 211: invalid number  at line 126 of [XSECT] section:
  MUL4             RECT_OPEN    0          10.00      0          0          


  Analysis begun on:  Sat Mar  7 21:51:32 2026
  Analysis ended on:  Sat Mar  7 21:51:32 2026
  Total elapsed time: < 1 sec