
  EPA STORM WATER MANAGEMENT MODEL - VERSION 5.2 (Build 5.2.4)
  ------------------------------------------------------------

  
  ERROR 209: undefined object SWD2 at line 33 of [CONDUIT] section:
  SWD1             SWD2             SHOPS            100.00     0.0140     100.00     99.00      0          0

  
  ERROR 209: undefined object ? at line 38 of [ORIFICE] section:
  207              ?                ?                SIDE       0          0.650      NO       0

  
  ERROR 209: undefined object ? at line 43 of [WEIR] section:
  205              ?                ?                TRANSVERSE 99.00      1.840      NO       0        0          YES

  
  ERROR 211: invalid number  at line 49 of [XSECT] section:
  207              RECT_CLOSED  0          0          0          0          

  
  ERROR 211: invalid number  at line 50 of [XSECT] section:
  205              RECT_OPEN    0          10.00      0          0          


  Analysis begun on:  Sat Mar  7 21:51:30 2026
  Analysis ended on:  Sat Mar  7 21:51:30 2026
  Total elapsed time: < 1 sec