
  EPA STORM WATER MANAGEMENT MODEL - VERSION 5.2 (Build 5.2.4)
  ------------------------------------------------------------

  
  ERROR 207: duplicate ID name 951 at line 709 of [CONDUIT] section:
  951              Node_951         Node_10081035    0          0          0          0          0          0

  
  ERROR 207: duplicate ID name 955 at line 713 of [CONDUIT] section:
  955              ?                964              0          0          0          0          0          0

  
  ERROR 207: duplicate ID name 957 at line 715 of [CONDUIT] section:
  957              ?                757              0          0          0          0          0          0

  
  ERROR 207: duplicate ID name 958 at line 716 of [CONDUIT] section:
  958              667              669              0          0          0          0          0          0

  
  ERROR 207: duplicate ID name 960 at line 718 of [CONDUIT] section:
  960              598              561              0          0          0          0          0          0

  
  ERROR 207: duplicate ID name 962 at line 720 of [CONDUIT] section:
  962              757              587              0          0          0          0          0          0


  Analysis begun on:  Sat Mar  7 21:51:23 2026
  Analysis ended on:  Sat Mar  7 21:51:23 2026
  Total elapsed time: < 1 sec