
  EPA STORM WATER MANAGEMENT MODEL - VERSION 5.2 (Build 5.2.4)
  ------------------------------------------------------------

  
  ERROR 209: undefined object 1069c at line 87 of [CONDUIT] section:
  1070c            1069c            1067             300.00     0.0140     213.39     195.34     0          0

  
  ERROR 209: undefined object 1063c at line 92 of [CONDUIT] section:
  1062c            1063c            1060             80.00      0.0140     195.34     202.34     0          0

  
  ERROR 209: undefined object 1066c at line 93 of [CONDUIT] section:
  1067c            1066c            1063             110.00     0.0140     195.34     195.34     0          0


  Analysis begun on:  Sat Mar  7 21:51:28 2026
  Analysis ended on:  Sat Mar  7 21:51:28 2026
  Total elapsed time: < 1 sec