
  EPA STORM WATER MANAGEMENT MODEL - VERSION 5.2 (Build 5.2.4)
  ------------------------------------------------------------

  
  ERROR 209: undefined object ? at line 34 of [CONDUIT] section:
  203              ?                ?                100.00     0          5.00       4.90       0          0

  
  ERROR 209: undefined object ? at line 35 of [CONDUIT] section:
  205              ?                ?                100.00     0          4.90       4.80       0          0

  
  ERROR 209: undefined object ? at line 36 of [CONDUIT] section:
  207              ?                ?                100.00     0          4.80       4.70       0          0

  
  ERROR 209: undefined object 10.00 at line 41 of [XSECT] section:
  203              IRREGULAR    10.00      0          0          0          1

  
  ERROR 209: undefined object 10.00 at line 42 of [XSECT] section:
  205              IRREGULAR    10.00      0          0          0          1

  
  ERROR 209: undefined object 10.00 at line 43 of [XSECT] section:
  207              IRREGULAR    10.00      0          0          0          1


  Analysis begun on:  Sat Mar  7 21:51:27 2026
  Analysis ended on:  Sat Mar  7 21:51:27 2026
  Total elapsed time: < 1 sec