
  EPA STORM WATER MANAGEMENT MODEL - VERSION 5.2 (Build 5.2.4)
  ------------------------------------------------------------

  
  ERROR 209: undefined object Node_6802 at line 90 of [CONDUIT] section:
  6802             Node_6802        Node_11891190    70.50      0.0130     81.05      79.71      0          0

  
  ERROR 209: undefined object Node_6830 at line 94 of [CONDUIT] section:
  6830             Node_6830        Node_1075269     85.60      0.0130     77.48      76.77      0          0

  
  ERROR 209: undefined object Node_6861 at line 98 of [CONDUIT] section:
  6861             Node_6861        Node_1090959     118.50     0.0130     77.75      76.15      0          0

  
  ERROR 209: undefined object Node_6873 at line 101 of [CONDUIT] section:
  6873             Node_6873        Node_1100247     14.40      0.0130     72.40      72.16      0          0

  
  ERROR 209: undefined object Node_6875 at line 103 of [CONDUIT] section:
  6875             Node_6875        Node_1225247     42.20      0.0130     72.27      72.00      0          0

  
  ERROR 209: undefined object Node_6891 at line 109 of [CONDUIT] section:
  6891             Node_6891        Node_1384241     101.90     0.0130     74.69      73.82      0          0

  
  ERROR 209: undefined object Node_6914 at line 112 of [CONDUIT] section:
  6914             Node_6914        Node_1095245     168.70     0.0130     72.14      70.62      0          0

  
  ERROR 209: undefined object Node_7003 at line 128 of [CONDUIT] section:
  7003             Node_7003        Node_11761482    76.00      0.0130     79.62      78.00      0          0

  
  ERROR 209: undefined object Node_7214 at line 129 of [CONDUIT] section:
  7214             Node_7214        Node_1447238     12.00      0.0130     77.10      77.00      0          0

  
  ERROR 209: undefined object Node_7020 at line 130 of [CONDUIT] section:
  7020             Node_7020        Node_1190993     133.00     0.0130     79.71      76.32      0          0

  
  ERROR 209: undefined object Node_7292 at line 131 of [CONDUIT] section:
  7292             Node_7292        Node_1077248     92.70      0.0130     79.02      77.63      0          0

  
  ERROR 209: undefined object ? at line 133 of [CONDUIT] section:
  P2               ?                Node_2724999     101.00     0.0130     71.13      70.94      0          0

  
  ERROR 209: undefined object ? at line 136 of [CONDUIT] section:
  P14              ?                Node_1496250     11.20      0.0130     78.95      78.85      0          0

  
  ERROR 209: undefined object ? at line 137 of [CONDUIT] section:
  D2               ?                Node_14821447    18.00      0.0200     78.00      77.10      0          0


  Analysis begun on:  Sat Mar  7 21:51:23 2026
  Analysis ended on:  Sat Mar  7 21:51:23 2026
  Total elapsed time: < 1 sec