
  EPA STORM WATER MANAGEMENT MODEL - VERSION 5.2 (Build 5.2.4)
  ------------------------------------------------------------

  
  ERROR 209: undefined object 5426010rd at line 105 of [CONDUIT] section:
  5426010          5426010rd        54C26103         454.00     0.0140     425.50     424.20     0          0

  
  ERROR 209: undefined object 5426020rd at line 106 of [CONDUIT] section:
  5426020          5426020rd        54C26104         230.00     0.0140     424.20     422.90     0          0

  
  ERROR 209: undefined object 5426040rd at line 108 of [CONDUIT] section:
  5426040          5426040rd        54C25110         255.00     0.0140     422.70     421.70     0          0

  
  ERROR 209: undefined object 54c25010rd at line 109 of [CONDUIT] section:
  54c25010         54c25010rd       54C25113         62.00      0.0140     421.70     420.50     0          0

  
  ERROR 209: undefined object 54c22010rd at line 110 of [CONDUIT] section:
  54c22010         54c22010rd       54C22352         300.00     0.0140     420.50     420.00     0          0

  
  ERROR 209: undefined object 54c25020rd at line 118 of [CONDUIT] section:
  54c25020         54c25020rd       54C22103         420.00     0.0140     420.50     420.50     0          0

  
  ERROR 209: undefined object 67c22015rd at line 125 of [CONDUIT] section:
  67c22015         67c22015rd       67C22110         87.00      0.0140     418.80     417.90     0          0

  
  ERROR 209: undefined object fbayover at line 169 of [CONDUIT] section:
  forebay          fbayover         137              280.00     0.0140     415.00     414.99     0          0

  
  ERROR 209: undefined object PONDRD at line 174 of [CONDUIT] section:
  INLETPOND        PONDRD           139              12.00      0.0140     416.50     416.28     0          0

  
  ERROR 209: undefined object OVERFLOW3 at line 180 of [ORIFICE] section:
  orifice          OVERFLOW3        STA0+00          SIDE       416.50     0.650      NO       0

  
  ERROR 209: undefined object OVERFLOW at line 185 of [WEIR] section:
  PIPE             OVERFLOW         oldroad          TRANSVERSE 418.00     1.840      NO       0        0          YES

  
  ERROR 209: undefined object 0 at line 196 of [XSECT] section:
  54C22020         IRREGULAR    0          0          0          0          1

  
  ERROR 209: undefined object 0 at line 211 of [XSECT] section:
  1+00             IRREGULAR    0          0          0          0          1

  
  ERROR 209: undefined object 0 at line 212 of [XSECT] section:
  1+50             IRREGULAR    0          0          0          0          1

  
  ERROR 209: undefined object 0 at line 213 of [XSECT] section:
  2+00             IRREGULAR    0          0          0          0          1

  
  ERROR 209: undefined object 0 at line 214 of [XSECT] section:
  2+50             IRREGULAR    0          0          0          0          1

  
  ERROR 209: undefined object 0 at line 215 of [XSECT] section:
  3+00             IRREGULAR    0          0          0          0          1

  
  ERROR 209: undefined object 0 at line 216 of [XSECT] section:
  3+50             IRREGULAR    0          0          0          0          1

  
  ERROR 209: undefined object 0 at line 217 of [XSECT] section:
  4+00             IRREGULAR    0          0          0          0          1

  
  ERROR 209: undefined object 0 at line 218 of [XSECT] section:
  4+50             IRREGULAR    0          0          0          0          1

  
  ERROR 209: undefined object 0 at line 219 of [XSECT] section:
  5+00             IRREGULAR    0          0          0          0          1

  
  ERROR 209: undefined object 0 at line 220 of [XSECT] section:
  5+50             IRREGULAR    0          0          0          0          1

  
  ERROR 209: undefined object 0 at line 221 of [XSECT] section:
  6+00             IRREGULAR    0          0          0          0          1

  
  ERROR 209: undefined object 0 at line 222 of [XSECT] section:
  6+50             IRREGULAR    0          0          0          0          1

  
  ERROR 209: undefined object 0 at line 223 of [XSECT] section:
  7+00             IRREGULAR    0          0          0          0          1

  
  ERROR 209: undefined object 0 at line 224 of [XSECT] section:
  7+50             IRREGULAR    0          0          0          0          1

  
  ERROR 209: undefined object 0 at line 225 of [XSECT] section:
  8+00             IRREGULAR    0          0          0          0          1

  
  ERROR 209: undefined object 0 at line 226 of [XSECT] section:
  8+50             IRREGULAR    0          0          0          0          1

  
  ERROR 209: undefined object 0 at line 227 of [XSECT] section:
  9+00             IRREGULAR    0          0          0          0          1

  
  ERROR 209: undefined object 0 at line 228 of [XSECT] section:
  9+50             IRREGULAR    0          0          0          0          1

  
  ERROR 209: undefined object 0 at line 229 of [XSECT] section:
  10+00            IRREGULAR    0          0          0          0          1

  
  ERROR 209: undefined object 0 at line 230 of [XSECT] section:
  10+50            IRREGULAR    0          0          0          0          1

  
  ERROR 209: undefined object 0 at line 231 of [XSECT] section:
  11+00            IRREGULAR    0          0          0          0          1

  
  ERROR 209: undefined object 0 at line 232 of [XSECT] section:
  11+50            IRREGULAR    0          0          0          0          1

  
  ERROR 209: undefined object 0 at line 233 of [XSECT] section:
  12+00            IRREGULAR    0          0          0          0          1

  
  ERROR 209: undefined object 0 at line 234 of [XSECT] section:
  12+50            IRREGULAR    0          0          0          0          1

  
  ERROR 209: undefined object 0 at line 235 of [XSECT] section:
  13+00            IRREGULAR    0          0          0          0          1

  
  ERROR 209: undefined object 0 at line 236 of [XSECT] section:
  13+50            IRREGULAR    0          0          0          0          1

  
  ERROR 209: undefined object 0 at line 237 of [XSECT] section:
  14+00            IRREGULAR    0          0          0          0          1

  
  ERROR 209: undefined object 0 at line 238 of [XSECT] section:
  14+50            IRREGULAR    0          0          0          0          1

  
  ERROR 209: undefined object 0 at line 239 of [XSECT] section:
  15+00            IRREGULAR    0          0          0          0          1

  
  ERROR 209: undefined object 0 at line 240 of [XSECT] section:
  15+50            IRREGULAR    0          0          0          0          1

  
  ERROR 209: undefined object 0 at line 241 of [XSECT] section:
  16+00            IRREGULAR    0          0          0          0          1

  
  ERROR 209: undefined object 0 at line 242 of [XSECT] section:
  16+50            IRREGULAR    0          0          0          0          1

  
  ERROR 209: undefined object 0 at line 243 of [XSECT] section:
  17+00            IRREGULAR    0          0          0          0          1

  
  ERROR 209: undefined object 0 at line 244 of [XSECT] section:
  17+50            IRREGULAR    0          0          0          0          1

  
  ERROR 209: undefined object 0 at line 245 of [XSECT] section:
  18+00            IRREGULAR    0          0          0          0          1

  
  ERROR 209: undefined object 0 at line 246 of [XSECT] section:
  18+50            IRREGULAR    0          0          0          0          1

  
  ERROR 209: undefined object 0 at line 247 of [XSECT] section:
  19+00            IRREGULAR    0          0          0          0          1

  
  ERROR 209: undefined object 0 at line 248 of [XSECT] section:
  19+50            IRREGULAR    0          0          0          0          1

  
  ERROR 209: undefined object 0 at line 249 of [XSECT] section:
  20+00            IRREGULAR    0          0          0          0          1

  
  ERROR 209: undefined object 0 at line 250 of [XSECT] section:
  20+50            IRREGULAR    0          0          0          0          1

  
  ERROR 209: undefined object 0 at line 251 of [XSECT] section:
  21+00            IRREGULAR    0          0          0          0          1

  
  ERROR 209: undefined object 0 at line 252 of [XSECT] section:
  0+50             IRREGULAR    0          0          0          0          1

  
  ERROR 209: undefined object 0 at line 255 of [XSECT] section:
  wetpond1         IRREGULAR    0          176.00     0          0          1

  
  ERROR 209: undefined object 0 at line 256 of [XSECT] section:
  wetpond2         IRREGULAR    0          0          0          0          1

  
  ERROR 209: undefined object 0 at line 257 of [XSECT] section:
  wetpond3         IRREGULAR    0          0          0          0          1

  
  ERROR 209: undefined object 0 at line 258 of [XSECT] section:
  wetpond4         IRREGULAR    0          4.00       0          0          1

  
  ERROR 209: undefined object 0 at line 260 of [XSECT] section:
  353.1            IRREGULAR    0          0          0          0          1

  
  ERROR 211: invalid number  at line 261 of [XSECT] section:
  orifice          RECT_CLOSED  0.83       0          0          0          

  
  ERROR 211: invalid number  at line 262 of [XSECT] section:
  PIPE             RECT_OPEN    0          3.00       0          0          


  Analysis begun on:  Sat Mar  7 21:51:21 2026
  Analysis ended on:  Sat Mar  7 21:51:21 2026
  Total elapsed time: < 1 sec