
  EPA STORM WATER MANAGEMENT MODEL - VERSION 5.2 (Build 5.2.4)
  ------------------------------------------------------------

  
  ERROR 209: undefined object PIPE_66 at line 39 of [CONDUIT] section:
  PIPE_72          PIPE_66          PIPE_60a         710.00     0.0120     513.97     513.75     0          0


  Analysis begun on:  Sat Mar  7 21:51:30 2026
  Analysis ended on:  Sat Mar  7 21:51:30 2026
  Total elapsed time: < 1 sec