
  EPA STORM WATER MANAGEMENT MODEL - VERSION 5.2 (Build 5.2.4)
  ------------------------------------------------------------

  
  ERROR 211: invalid number  at line 205 of [XSECT] section:
  S-3228           TRAPEZOIDAL  0.50       0          0          0          1

  
  ERROR 211: invalid number  at line 206 of [XSECT] section:
  S-2622           TRAPEZOIDAL  0.50       0          0          0          1

  
  ERROR 211: invalid number  at line 207 of [XSECT] section:
  S-1723           TRAPEZOIDAL  0.50       0          0          0          1

  
  ERROR 211: invalid number  at line 208 of [XSECT] section:
  S-1519           TRAPEZOIDAL  0.50       0          0          0          1

  
  ERROR 211: invalid number  at line 209 of [XSECT] section:
  S-1813           TRAPEZOIDAL  0.50       0          0          0          1

  
  ERROR 211: invalid number  at line 210 of [XSECT] section:
  S-18A12          TRAPEZOIDAL  0.50       0          0          0          1

  
  ERROR 211: invalid number  at line 211 of [XSECT] section:
  WEIR34           RECT_CLOSED  0.01       0          0          0          

  
  ERROR 211: invalid number  at line 212 of [XSECT] section:
  WEIR33           RECT_OPEN    0          4.00       0          0          

  
  ERROR 211: invalid number  at line 213 of [XSECT] section:
  WEIR32           RECT_OPEN    0          4.00       0          0          

  
  ERROR 211: invalid number  at line 214 of [XSECT] section:
  WEIR30           RECT_OPEN    0          4.00       0          0          

  
  ERROR 211: invalid number  at line 215 of [XSECT] section:
  WEIR29           RECT_OPEN    0          4.00       0          0          

  
  ERROR 211: invalid number  at line 216 of [XSECT] section:
  WEIR28           RECT_OPEN    0          4.00       0          0          

  
  ERROR 211: invalid number  at line 217 of [XSECT] section:
  WEIR25           RECT_OPEN    0          4.00       0          0          

  
  ERROR 211: invalid number  at line 218 of [XSECT] section:
  WEIR26           RECT_OPEN    0          4.00       0          0          

  
  ERROR 211: invalid number  at line 219 of [XSECT] section:
  WEIR20           RECT_OPEN    0          4.00       0          0          

  
  ERROR 211: invalid number  at line 220 of [XSECT] section:
  WEIR22           RECT_OPEN    0          4.00       0          0          

  
  ERROR 211: invalid number  at line 221 of [XSECT] section:
  WEIR23           RECT_OPEN    0          4.00       0          0          

  
  ERROR 211: invalid number  at line 222 of [XSECT] section:
  WEIR21           RECT_OPEN    0          4.00       0          0          

  
  ERROR 211: invalid number  at line 223 of [XSECT] section:
  WEIR19           RECT_OPEN    0          4.00       0          0          

  
  ERROR 211: invalid number  at line 224 of [XSECT] section:
  WEIR15           RECT_OPEN    0          4.00       0          0          

  
  ERROR 211: invalid number  at line 225 of [XSECT] section:
  WEIR16           RECT_OPEN    0          4.00       0          0          

  
  ERROR 211: invalid number  at line 226 of [XSECT] section:
  WEIR17           RECT_OPEN    0          4.00       0          0          

  
  ERROR 211: invalid number  at line 227 of [XSECT] section:
  WEIR18           RECT_OPEN    0          4.00       0          0          

  
  ERROR 211: invalid number  at line 228 of [XSECT] section:
  WEIR18A          RECT_OPEN    0          4.00       0          0          

  
  ERROR 211: invalid number  at line 229 of [XSECT] section:
  WEIR13           RECT_OPEN    0          4.00       0          0          

  
  ERROR 211: invalid number  at line 230 of [XSECT] section:
  WEIR14           RECT_OPEN    0          4.00       0          0          

  
  ERROR 211: invalid number  at line 231 of [XSECT] section:
  WEIR12           RECT_OPEN    0          4.00       0          0          

  
  ERROR 211: invalid number  at line 232 of [XSECT] section:
  WEIR14A          RECT_OPEN    0          4.00       0          0          

  
  ERROR 211: invalid number  at line 233 of [XSECT] section:
  WEIR3433         RECT_OPEN    0          20.00      0          0          

  
  ERROR 211: invalid number  at line 234 of [XSECT] section:
  S33-30           RECT_OPEN    0          0          0          0          

  
  ERROR 211: invalid number  at line 235 of [XSECT] section:
  WEIR3029         RECT_OPEN    0          20.00      0          0          

  
  ERROR 211: invalid number  at line 236 of [XSECT] section:
  S-2925           RECT_OPEN    0          0          0          0          

  
  ERROR 211: invalid number  at line 237 of [XSECT] section:
  S-28C70          RECT_OPEN    0          0          0          0          

  
  ERROR 211: invalid number  at line 238 of [XSECT] section:
  WEIR2526         RECT_OPEN    0          20.00      0          0          

  
  ERROR 211: invalid number  at line 239 of [XSECT] section:
  WEIR22C60        RECT_OPEN    0          20.00      0          0          

  
  ERROR 211: invalid number  at line 240 of [XSECT] section:
  WEIR23C50        RECT_OPEN    0          20.00      0          0          

  
  ERROR 211: invalid number  at line 241 of [XSECT] section:
  WEIR19C50        RECT_OPEN    0          20.00      0          0          

  
  ERROR 211: invalid number  at line 242 of [XSECT] section:
  WEIR21C60        RECT_OPEN    0          20.00      0          0          

  
  ERROR 211: invalid number  at line 243 of [XSECT] section:
  WEIR20C60        RECT_OPEN    0          20.00      0          0          

  
  ERROR 211: invalid number  at line 244 of [XSECT] section:
  weir26C70        RECT_OPEN    0          20.00      0          0          


  Analysis begun on:  Sat Mar  7 21:51:23 2026
  Analysis ended on:  Sat Mar  7 21:51:23 2026
  Total elapsed time: < 1 sec