
  EPA STORM WATER MANAGEMENT MODEL - VERSION 5.2 (Build 5.2.4)
  ------------------------------------------------------------

  
  ERROR 211: invalid number 1006.4927990.01 at line 1230 of [CONDUIT] section:
  CDT-167          JCT-164          JCT-166          1006.4927990.01       0          0          0          0


  Analysis begun on:  Mon Mar  9 22:55:28 2026
  Analysis ended on:  Mon Mar  9 22:55:28 2026
  Total elapsed time: < 1 sec