
  EPA STORM WATER MANAGEMENT MODEL - VERSION 5.2 (Build 5.2.4)
  ------------------------------------------------------------

  
  ERROR 209: undefined object ? at line 42 of [CONDUIT] section:
  216              ?                ?                0          0          0          0          0          0

  
  ERROR 209: undefined object road at line 48 of [WEIR] section:
  205.1            road             204              TRANSVERSE 0          1.840      NO       0        0          YES

  
  ERROR 211: invalid number  at line 57 of [XSECT] section:
  216              CIRCULAR     0          0          0          0          1

  
  ERROR 211: invalid number  at line 58 of [XSECT] section:
  culvert          RECT_OPEN    0          0          0          0          

  
  ERROR 211: invalid number  at line 59 of [XSECT] section:
  205.1            RECT_OPEN    0          0          0          0          


  Analysis begun on:  Sat Mar  7 21:51:25 2026
  Analysis ended on:  Sat Mar  7 21:51:25 2026
  Total elapsed time: < 1 sec