
  EPA STORM WATER MANAGEMENT MODEL - VERSION 5.2 (Build 5.2.4)
  ------------------------------------------------------------

  
  ERROR 207: duplicate ID name Dummy at line 349 of [CONDUIT] section:
  Dummy            9310             931              33.00      0.0140     0          0          0          0

  
  ERROR 207: duplicate ID name Dummy at line 350 of [CONDUIT] section:
  Dummy            9320             931              33.00      0.0140     0          0          0          0


  Analysis begun on:  Sat Mar  7 21:51:32 2026
  Analysis ended on:  Sat Mar  7 21:51:32 2026
  Total elapsed time: < 1 sec