
  EPA STORM WATER MANAGEMENT MODEL - VERSION 5.2 (Build 5.2.4)
  ------------------------------------------------------------

  
  ERROR 207: duplicate ID name 0 at line 32 of [STORAGE] section:
  0                50.00      0          0          FUNCTIONAL 1000.00 0          0

  
  ERROR 207: duplicate ID name 0 at line 33 of [STORAGE] section:
  0                10.00      0          0          FUNCTIONAL 1000.00 0          0

  
  ERROR 207: duplicate ID name 0 at line 34 of [STORAGE] section:
  0                10.00      0          26.00      FUNCTIONAL 0.00 0          0


  Analysis begun on:  Sat Mar  7 21:51:25 2026
  Analysis ended on:  Sat Mar  7 21:51:25 2026
  Total elapsed time: < 1 sec