
  EPA STORM WATER MANAGEMENT MODEL - VERSION 5.2 (Build 5.2.4)
  ------------------------------------------------------------

  
  ERROR 209: undefined object ? at line 42 of [CONDUIT] section:
  203              ?                ?                300.00     0.0140     0          0          0          0

  
  ERROR 209: undefined object ? at line 43 of [CONDUIT] section:
  205              ?                ?                300.00     0.0140     0          0          0          0

  
  ERROR 209: undefined object ? at line 44 of [CONDUIT] section:
  207              ?                ?                300.00     0.0140     0          0          0          0

  
  ERROR 209: undefined object ? at line 45 of [CONDUIT] section:
  209              ?                ?                300.00     0.0140     0          0          0          0

  
  ERROR 209: undefined object ? at line 46 of [CONDUIT] section:
  211              ?                ?                300.00     0.0140     0          0          0          0

  
  ERROR 209: undefined object ? at line 47 of [CONDUIT] section:
  213              ?                ?                300.00     0.0140     0          0          0          0

  
  ERROR 209: undefined object ? at line 48 of [CONDUIT] section:
  215              ?                ?                300.00     0.0140     0          0          0          0

  
  ERROR 209: undefined object ? at line 49 of [CONDUIT] section:
  224              ?                ?                300.00     0.0140     0          0          0          0

  
  ERROR 209: undefined object ? at line 50 of [CONDUIT] section:
  226              ?                ?                300.00     0.0140     0          0          0          0

  
  ERROR 209: undefined object ? at line 51 of [CONDUIT] section:
  227              ?                ?                300.00     0.0140     0          0          0          0

  
  ERROR 209: undefined object ? at line 52 of [CONDUIT] section:
  229              ?                ?                300.00     0.0140     0          0          0          0

  
  ERROR 209: undefined object ? at line 53 of [CONDUIT] section:
  231              ?                ?                300.00     0.0140     0          0          0          0


  Analysis begun on:  Sat Mar  7 21:51:23 2026
  Analysis ended on:  Sat Mar  7 21:51:23 2026
  Total elapsed time: < 1 sec