
  EPA STORM WATER MANAGEMENT MODEL - VERSION 5.2 (Build 5.2.4)
  ------------------------------------------------------------

  
  ERROR 209: undefined object ? at line 42 of [CONDUIT] section:
  210              ?                ?                10.00      0.0110     99.75      99.50      0          0

  
  ERROR 209: undefined object 11 at line 47 of [WEIR] section:
  REACT            11               3                TRANSVERSE 100.00     1.840      NO       0        0          YES

  
  ERROR 211: invalid number 0 at line 54 of [XSECT] section:
  210              CUSTOM       0          0          0          0          1

  
  ERROR 211: invalid number  at line 55 of [XSECT] section:
  REACT            RECT_OPEN    0          50.00      0          0          


  Analysis begun on:  Sat Mar  7 21:51:30 2026
  Analysis ended on:  Sat Mar  7 21:51:30 2026
  Total elapsed time: < 1 sec