
  EPA STORM WATER MANAGEMENT MODEL - VERSION 5.2 (Build 5.2.4)
  ------------------------------------------------------------

  WARNING 04: minimum elevation drop used for Conduit 264_2
  WARNING 04: minimum elevation drop used for Conduit 264_3
  WARNING 02: maximum depth increased for Node 243_N1
  WARNING 02: maximum depth increased for Node 245_N1
  
  *************
  Element Count
  *************
  Number of rain gages ...... 1
  Number of subcatchments ... 30
  Number of nodes ........... 96
  Number of links ........... 91
  Number of pollutants ...... 4
  Number of land uses ....... 8
  
  
  *****************
  Pollutant Summary
  *****************
                               Ppt.      GW         Kdecay
  Name                 Units   Concen.   Concen.    1/days    CoPollutant
  -----------------------------------------------------------------------
  BOD5                  MG/L      0.00      0.00      0.08
  NITRO                 MG/L      0.00      0.00      0.20
  PHOS                  MG/L      0.00      0.00      1.50
  LEAD                  MG/L      0.00      0.00      0.90
  
  
  ***************
  Landuse Summary
  ***************
                         Sweeping   Maximum      Last
  Name                   Interval   Removal     Swept
  ---------------------------------------------------
  COMM                      14.00      0.38     14.00
  SRES                       0.00      0.00      0.00
  MRES                       0.00      0.00      0.00
  ATHL                       0.00      0.00      0.00
  OPEN                       0.00      0.00      0.00
  FOREST                     0.00      0.00      0.00
  GARDEN                     0.00      0.00      0.00
  LOT                        0.00      0.00      0.00
  
  
  ****************
  Raingage Summary
  ****************
                                                      Data       Recording
  Name                 Data Source                    Type       Interval 
  ------------------------------------------------------------------------
  GAGE1                C:\NCIMM_Training\Data_Files\rdu.dat
  
  
  ********************
  Subcatchment Summary
  ********************
  Name                       Area     Width   %Imperv    %Slope Rain Gage            Outlet              
  -----------------------------------------------------------------------------------------------------------
  5                          8.20    770.00     95.00    2.3400 GAGE1                305                 
  6                          8.70    720.00    100.00    3.8900 GAGE1                306                 
  7                          8.20    600.00     60.00    5.8300 GAGE1                307                 
  8                          8.60    420.00    100.00    0.5000 GAGE1                308                 
  9                          6.80    380.00     80.00    3.1600 GAGE1                309                 
  10                         2.90    340.00     60.00    2.9400 GAGE1                310                 
  12                         1.50    313.00      0.00   10.0000 GAGE1                312a                
  13                        10.60    580.00      0.00    5.1700 GAGE1                313a                
  14                         9.90    520.00      0.00    6.3500 GAGE1                314                 
  15                         1.90    320.00      0.00    3.4400 GAGE1                315                 
  16                         6.80    540.00      5.00    4.4400 GAGE1                316                 
  17                         2.30    140.00     80.00   11.4300 GAGE1                317                 
  18                         7.40    560.00      0.00    7.1400 GAGE1                318                 
  19                        14.10   1060.00      5.00    2.9200 GAGE1                89                  
  20                         7.30    260.00      3.00    7.6900 GAGE1                320                 
  21                         4.80    340.00     10.00    9.4100 GAGE1                321                 
  22                        19.20    540.00     10.00    4.8100 GAGE1                322                 
  24                         3.60    620.00     90.00    3.2300 GAGE1                324                 
  25                         1.90    380.00     30.00    6.0500 GAGE1                325                 
  26                         8.30    840.00     90.00    2.2600 GAGE1                326                 
  27                        18.90   1080.00     35.00    6.1100 GAGE1                327                 
  28                         7.60    800.00     16.00    4.1300 GAGE1                328                 
  29                         7.70    740.00      7.00    8.5100 GAGE1                47                  
  30                         6.10    420.00      0.00   11.1900 GAGE1                330                 
  31                         2.50    320.00      0.00    9.3800 GAGE1                331                 
  33                         6.80    540.00     33.00    5.9300 GAGE1                333                 
  42                         6.60    387.00     31.40    0.6800 GAGE1                342                 
  51                         7.70    925.00     29.00    0.6800 GAGE1                351                 
  54                         3.80    238.00     24.00    0.6800 GAGE1                354                 
  55                         3.10    150.00      8.20    0.6800 GAGE1                355                 
  
  
  ************
  Node Summary
  ************
                                           Invert      Max.    Ponded    External
  Name                 Type                 Elev.     Depth      Area    Inflow  
  -------------------------------------------------------------------------------
  305                  JUNCTION             55.66      1.00       0.0    Yes
  306                  JUNCTION             51.52      1.50       0.0    Yes
  307                  JUNCTION             40.27      1.00       0.0    Yes
  308                  JUNCTION             29.75      3.00       0.0    Yes
  309                  JUNCTION             42.48      2.00       0.0    Yes
  310                  JUNCTION             67.98      2.00       0.0    Yes
  314                  JUNCTION             29.80      3.20       0.0    Yes
  316                  JUNCTION             50.43      1.50       0.0    Yes
  317                  JUNCTION             30.00      1.00       0.0    Yes
  318                  JUNCTION             44.10      3.00       0.0    Yes
  320                  JUNCTION             57.11      2.00       0.0    Yes
  321                  JUNCTION             11.08      2.50       0.0    Yes
  322                  JUNCTION             21.50      4.50       0.0    Yes
  324                  JUNCTION             53.73      1.50       0.0    Yes
  325                  JUNCTION             45.93      1.50       0.0    Yes
  326                  JUNCTION             49.03      2.50       0.0    Yes
  327                  JUNCTION              3.97      7.30       0.0    Yes
  328                  JUNCTION              2.48      7.30       0.0    Yes
  333                  JUNCTION             40.92      1.50       0.0    Yes
  342                  JUNCTION             49.42      1.00       0.0    Yes
  351                  JUNCTION             37.82      2.00       0.0    Yes
  355                  JUNCTION             57.19      1.50       0.0    Yes
  64                   JUNCTION             62.96      1.50       0.0
  47                   JUNCTION              0.85      7.30       0.0
  49                   JUNCTION              3.86      7.30       0.0
  51                   JUNCTION              9.42      3.00       0.0
  53                   JUNCTION             18.25      3.00       0.0
  54                   JUNCTION             19.55      2.00       0.0
  56                   JUNCTION              4.14      7.30       0.0
  57                   JUNCTION             11.98      3.50       0.0
  58                   JUNCTION             12.60      4.50       0.0
  60                   JUNCTION             35.51      3.00       0.0
  62                   JUNCTION             48.55      2.00       0.0
  63                   JUNCTION             40.96      2.00       0.0
  354                  JUNCTION             66.65      1.00       0.0
  66                   JUNCTION             23.73      2.30       0.0
  67                   JUNCTION             25.98      2.30       0.0
  68                   JUNCTION             38.88      2.50       0.0
  71                   JUNCTION             29.23      3.20       0.0
  82                   JUNCTION             33.77      2.50       0.0
  84                   JUNCTION             57.08      2.00       0.0
  86                   JUNCTION             34.82      2.50       0.0
  89                   JUNCTION              7.35      2.50       0.0
  90                   JUNCTION             42.96      1.50       0.0
  102n                 JUNCTION             39.54      3.00       0.0
  312b                 JUNCTION             29.24      1.20       0.0
  313b                 JUNCTION             29.21      1.00       0.0
  243_N1               JUNCTION              0.42      7.30      13.0
  245_N1               JUNCTION              3.17      7.30      13.0
  248_N1               JUNCTION             30.42      6.00      13.0
  248_N2               JUNCTION             19.92      6.00      13.0
  253_N1               JUNCTION              9.37      6.00      13.0
  253_N2               JUNCTION              6.75      6.00      13.0
  256_N1               JUNCTION             22.61      6.00      13.0
  257_N1               JUNCTION             24.86      6.00      13.0
  258_N1               JUNCTION             32.43      6.00      13.0
  260_N1               JUNCTION             32.76      6.00      13.0
  261_N1               JUNCTION             27.59      6.00      13.0
  262_N1               JUNCTION             29.23      6.00      13.0
  263_N1               JUNCTION             45.56      6.00      13.0
  263_N2               JUNCTION             37.40      6.00      13.0
  264_N1               JUNCTION             29.24      6.00      13.0
  264_N2               JUNCTION             29.24      6.00      13.0
  264_N3               JUNCTION             29.24      6.00      13.0
  265_N1               JUNCTION             29.93      6.00      13.0
  265_N2               JUNCTION             29.87      6.00      13.0
  271_N1               JUNCTION             44.26      6.00      13.0
  271_N2               JUNCTION             37.01      6.00      13.0
  272_N1               JUNCTION             31.76      6.00      13.0
  273_N1               JUNCTION             38.12      6.00      13.0
  274_N1               JUNCTION             49.78      6.00      13.0
  275_N1               JUNCTION             62.53      6.00      13.0
  276_N1               JUNCTION             34.30      6.00      13.0
  277_N1               JUNCTION             45.24      6.00      13.0
  279_N1               JUNCTION             31.09      6.00      13.0
  279_N2               JUNCTION             19.22      6.00      13.0
  281_N1               JUNCTION             28.50      6.00      13.0
  285_N1               JUNCTION             55.03      6.00      13.0
  285_N2               JUNCTION             52.87      6.00      13.0
  285_N3               JUNCTION             50.71      6.00      13.0
  286_N1               JUNCTION             58.16      6.00      13.0
  286_N2               JUNCTION             53.35      6.00      13.0
  287_N1               JUNCTION             64.81      6.00      13.0
  295_N1               JUNCTION             42.58      6.00      13.0
  295_N2               JUNCTION             41.06      6.00      13.0
  297_N1               JUNCTION             45.60      6.00      13.0
  297_N2               JUNCTION             34.09      6.00      13.0
  297_N3               JUNCTION             22.59      6.00      13.0
  298_N1               JUNCTION              7.53      6.00      13.0
  315                  OUTFALL               0.00      0.00       0.0    Yes
  319                  OUTFALL               0.00      2.50       0.0    Yes
  329                  OUTFALL               0.00      7.30       0.0    Yes
  330                  OUTFALL               0.00      0.00       0.0    Yes
  331                  OUTFALL               0.00      0.00       0.0    Yes
  312a                 STORAGE              29.24     21.00       0.0
  313a                 STORAGE              29.23     21.00       0.0
  
  
  ************
  Link Summary
  ************
  Name             From Node        To Node          Type            Length    %Slope Roughness
  ---------------------------------------------------------------------------------------------
  243_1            47               243_N1           CONDUIT          164.0    0.2591    0.0500
  243_2            243_N1           329              CONDUIT          164.0    0.2591    0.0500
  244              328              47               CONDUIT          161.0    1.0125    0.0150
  245_1            49               245_N1           CONDUIT          123.0    0.5610    0.0500
  245_2            245_N1           328              CONDUIT          123.0    0.5610    0.0500
  246              327              49               CONDUIT           70.0    0.1571    0.0150
  247              51               327              CONDUIT          192.0    2.8397    0.0200
  248_1            333              248_N1           CONDUIT          142.7    7.3797    0.0150
  248_2            248_N1           248_N2           CONDUIT          142.7    7.3797    0.0150
  248_3            248_N2           51               CONDUIT          142.7    7.3797    0.0150
  249              53               51               CONDUIT          120.0    7.3783    0.0150
  250              54               53               CONDUIT           90.0    1.4446    0.0150
  251              351              54               CONDUIT          142.0   12.9740    0.0150
  252              56               327              CONDUIT          110.0    0.1545    0.0500
  253_1            57               253_N1           CONDUIT          182.7    1.4306    0.0300
  253_2            253_N1           253_N2           CONDUIT          182.7    1.4311    0.0300
  253_3            253_N2           56               CONDUIT          182.7    1.4306    0.0300
  254              58               57               CONDUIT           81.2    0.7631    0.0500
  255              322              58               CONDUIT          200.0    4.4544    0.0150
  256_1            66               256_N1           CONDUIT          106.5    1.0470    0.0150
  256_2            256_N1           322              CONDUIT          106.5    1.0470    0.0150
  257_1            67               257_N1           CONDUIT          149.5    0.7525    0.0250
  257_2            257_N1           66               CONDUIT          149.5    0.7525    0.0250
  258_1            68               258_N1           CONDUIT          114.0    5.6670    0.0150
  258_2            258_N1           67               CONDUIT          114.0    5.6670    0.0150
  259              326              68               CONDUIT           63.0   16.3244    0.0150
  260_1            102n             260_N1           CONDUIT          173.0    3.9221    0.0200
  260_2            260_N1           67               CONDUIT          173.0    3.9221    0.0200
  261_1            313b             261_N1           CONDUIT          157.5    1.0255    0.0500
  261_2            261_N1           67               CONDUIT          157.5    1.0255    0.0500
  262_1            71               262_N1           CONDUIT          144.0    0.0014    0.0500
  262_2            262_N1           313a             CONDUIT          144.0    0.0021    0.0500
  263_1            324              263_N1           CONDUIT          145.8    5.6092    0.0250
  263_2            263_N1           263_N2           CONDUIT          145.8    5.6085    0.0250
  263_3            263_N2           313a             CONDUIT          145.8    5.6092    0.0250
  264_1            312b             264_N1           CONDUIT          158.2    0.0006    0.0500
  264_2            264_N1           264_N2           CONDUIT          158.2    0.0006    0.0500
  264_3            264_N2           264_N3           CONDUIT          158.2    0.0006    0.0500
  264_4            264_N3           71               CONDUIT          158.2    0.0006    0.0500
  265_1            317              265_N1           CONDUIT          178.7    0.0375    0.0300
  265_2            265_N1           265_N2           CONDUIT          178.7    0.0369    0.0300
  265_3            265_N2           314              CONDUIT          178.7    0.0375    0.0300
  266              314              71               CONDUIT          118.5    0.4767    0.0300
  268              307              312a             CONDUIT          138.0    8.0184    0.0300
  269              325              312a             CONDUIT          162.5   10.3254    0.0170
  270              308              312a             CONDUIT           62.5    0.8160    0.0170
  271_1            306              271_N1           CONDUIT          165.3    4.3936    0.0200
  271_2            271_N1           271_N2           CONDUIT          165.3    4.3930    0.0200
  271_3            271_N2           308              CONDUIT          165.3    4.3936    0.0200
  272_1            82               272_N1           CONDUIT          110.0    1.8276    0.0160
  272_2            272_N1           308              CONDUIT          110.0    1.8276    0.0160
  273_1            309              273_N1           CONDUIT          118.0    3.6932    0.0150
  273_2            273_N1           82               CONDUIT          118.0    3.6932    0.0150
  274_1            84               274_N1           CONDUIT          165.5    4.4152    0.0150
  274_2            274_N1           309              CONDUIT          165.5    4.4152    0.0150
  275_1            310              275_N1           CONDUIT          153.5    3.5527    0.0150
  275_2            275_N1           84               CONDUIT          153.5    3.5527    0.0150
  276_1            86               276_N1           CONDUIT          193.0    0.2720    0.0150
  276_2            276_N1           82               CONDUIT          193.0    0.2720    0.0150
  277_1            305              277_N1           CONDUIT          153.5    6.8040    0.0150
  277_2            277_N1           86               CONDUIT          153.5    6.8040    0.0150
  278              89               319              CONDUIT          118.0    6.2409    0.0150
  279_1            90               279_N1           CONDUIT          172.0    6.9177    0.0250
  279_2            279_N1           279_N2           CONDUIT          172.0    6.9177    0.0250
  279_3            279_N2           89               CONDUIT          172.0    6.9177    0.0250
  280              316              90               CONDUIT           63.0   11.9414    0.0120
  281_1            60               281_N1           CONDUIT          150.0    4.6751    0.0150
  281_2            281_N1           322              CONDUIT          150.0    4.6751    0.0150
  282              63               60               CONDUIT           90.0    6.0667    0.0150
  283              62               63               CONDUIT          196.0    3.8754    0.0150
  284              342              62               CONDUIT          155.0    0.5613    0.0150
  285_1            355              285_N1           CONDUIT          165.0    1.3092    0.0150
  285_2            285_N1           285_N2           CONDUIT          165.0    1.3092    0.0150
  285_3            285_N2           285_N3           CONDUIT          165.0    1.3092    0.0150
  285_4            285_N3           62               CONDUIT          165.0    1.3092    0.0150
  286_1            64               286_N1           CONDUIT          175.9    2.7311    0.0150
  286_2            286_N1           286_N2           CONDUIT          175.9    2.7317    0.0150
  286_3            286_N2           62               CONDUIT          175.9    2.7311    0.0150
  287_1            354              287_N1           CONDUIT          105.5    1.7491    0.0150
  287_2            287_N1           64               CONDUIT          105.5    1.7491    0.0150
  295_1            318              295_N1           CONDUIT          160.0    0.9500    0.0150
  295_2            295_N1           295_N2           CONDUIT          160.0    0.9500    0.0150
  295_3            295_N2           102n             CONDUIT          160.0    0.9500    0.0150
  297_1            320              297_N1           CONDUIT          163.3    7.0630    0.0300
  297_2            297_N1           297_N2           CONDUIT          163.3    7.0624    0.0300
  297_3            297_N2           297_N3           CONDUIT          163.3    7.0630    0.0300
  297_4            297_N3           321              CONDUIT          163.3    7.0624    0.0300
  298_1            321              298_N1           CONDUIT          191.5    1.8567    0.0300
  298_2            298_N1           327              CONDUIT          191.5    1.8567    0.0300
  O1               312a             312b             ORIFICE     
  O2               313a             313b             ORIFICE     
  
  
  *********************
  Cross Section Summary
  *********************
                                        Full     Full     Hyd.     Max.   No. of     Full
  Conduit          Shape               Depth     Area     Rad.    Width  Barrels     Flow
  ---------------------------------------------------------------------------------------
  243_1            TRAPEZOIDAL          7.30   219.37     3.81    55.60        1   808.96
  243_2            TRAPEZOIDAL          7.30   219.37     3.81    55.60        1   808.96
  244              CIRCULAR             5.33    22.31     1.33     5.33        1   269.32
  245_1            TRAPEZOIDAL          7.30   219.37     3.81    55.60        1  1190.23
  245_2            TRAPEZOIDAL          7.30   219.37     3.81    55.60        1  1190.23
  246              RECT_CLOSED          5.50    24.75     1.24     4.50        1   112.03
  247              CIRCULAR             3.00     7.07     0.75     3.00        1    73.06
  248_1            CIRCULAR             1.50     1.77     0.38     1.50        1    24.73
  248_2            CIRCULAR             1.50     1.77     0.38     1.50        1    24.73
  248_3            CIRCULAR             1.50     1.77     0.38     1.50        1    24.73
  249              CIRCULAR             3.00     7.07     0.75     3.00        1   157.02
  250              CIRCULAR             2.00     3.14     0.50     2.00        1    23.56
  251              CIRCULAR             2.00     3.14     0.50     2.00        1    70.62
  252              TRAPEZOIDAL          7.30   219.37     3.81    55.60        1   624.72
  253_1            TRAPEZOIDAL          3.50    58.62     1.96    29.00        1   543.13
  253_2            TRAPEZOIDAL          3.50    58.62     1.96    29.00        1   543.23
  253_3            TRAPEZOIDAL          3.50    58.62     1.96    29.00        1   543.13
  254              TRAPEZOIDAL          3.50    58.62     1.96    29.00        1   238.00
  255              RECT_CLOSED          4.50    20.25     1.12     4.50        1   457.98
  256_1            CIRCULAR             2.00     3.14     0.50     2.00        1    20.06
  256_2            CIRCULAR             2.00     3.14     0.50     2.00        1    20.06
  257_1            RECT_CLOSED          2.30    11.50     0.79     5.00        1    50.57
  257_2            RECT_CLOSED          2.30    11.50     0.79     5.00        1    50.57
  258_1            CIRCULAR             2.00     3.14     0.50     2.00        1    46.67
  258_2            CIRCULAR             2.00     3.14     0.50     2.00        1    46.67
  259              CIRCULAR             2.50     4.91     0.62     2.50        1   143.63
  260_1            CIRCULAR             2.00     3.14     0.50     2.00        1    29.12
  260_2            CIRCULAR             2.00     3.14     0.50     2.00        1    29.12
  261_1            RECT_CLOSED          1.00     5.00     0.42     5.00        1     8.39
  261_2            RECT_CLOSED          1.00     5.00     0.42     5.00        1     8.39
  262_1            RECT_CLOSED          3.20     7.04     0.65     2.20        1     0.59
  262_2            RECT_CLOSED          3.20     7.04     0.65     2.20        1     0.72
  263_1            CIRCULAR             1.50     1.77     0.38     1.50        1    12.94
  263_2            CIRCULAR             1.50     1.77     0.38     1.50        1    12.94
  263_3            CIRCULAR             1.50     1.77     0.38     1.50        1    12.94
  264_1            CIRCULAR             1.20     1.13     0.30     1.20        1     0.04
  264_2            CIRCULAR             1.20     1.13     0.30     1.20        1     0.04
  264_3            CIRCULAR             1.20     1.13     0.30     1.20        1     0.04
  264_4            CIRCULAR             1.20     1.13     0.30     1.20        1     0.04
  265_1            RECT_CLOSED          1.00     3.00     0.38     3.00        1     1.50
  265_2            RECT_CLOSED          1.00     3.00     0.38     3.00        1     1.49
  265_3            RECT_CLOSED          1.00     3.00     0.38     3.00        1     1.50
  266              RECT_CLOSED          3.20     7.04     0.65     2.20        1    18.10
  268              RECT_CLOSED          1.00     3.00     0.38     3.00        1    21.88
  269              CIRCULAR             1.50     1.77     0.38     1.50        1    25.81
  270              CIRCULAR             3.00     7.07     0.75     3.00        1    46.07
  271_1            CIRCULAR             1.50     1.77     0.38     1.50        1    14.31
  271_2            CIRCULAR             1.50     1.77     0.38     1.50        1    14.31
  271_3            CIRCULAR             1.50     1.77     0.38     1.50        1    14.31
  272_1            CIRCULAR             2.50     4.91     0.62     2.50        1    45.05
  272_2            CIRCULAR             2.50     4.91     0.62     2.50        1    45.05
  273_1            CIRCULAR             2.00     3.14     0.50     2.00        1    37.68
  273_2            CIRCULAR             2.00     3.14     0.50     2.00        1    37.68
  274_1            CIRCULAR             2.00     3.14     0.50     2.00        1    41.20
  274_2            CIRCULAR             2.00     3.14     0.50     2.00        1    41.20
  275_1            CIRCULAR             2.00     3.14     0.50     2.00        1    36.95
  275_2            CIRCULAR             2.00     3.14     0.50     2.00        1    36.95
  276_1            CIRCULAR             2.50     4.91     0.62     2.50        1    18.54
  276_2            CIRCULAR             2.50     4.91     0.62     2.50        1    18.54
  277_1            CIRCULAR             1.00     0.79     0.25     1.00        1     8.05
  277_2            CIRCULAR             1.00     0.79     0.25     1.00        1     8.05
  278              CIRCULAR             2.50     4.91     0.62     2.50        1    88.81
  279_1            RECT_CLOSED          1.00     2.00     0.33     2.00        1    15.03
  279_2            RECT_CLOSED          1.00     2.00     0.33     2.00        1    15.03
  279_3            RECT_CLOSED          1.00     2.00     0.33     2.00        1    15.03
  280              CIRCULAR             1.50     1.77     0.38     1.50        1    39.32
  281_1            CIRCULAR             3.00     7.07     0.75     3.00        1   124.99
  281_2            CIRCULAR             3.00     7.07     0.75     3.00        1   124.99
  282              CIRCULAR             2.00     3.14     0.50     2.00        1    48.29
  283              CIRCULAR             2.00     3.14     0.50     2.00        1    38.60
  284              CIRCULAR             1.00     0.79     0.25     1.00        1     2.31
  285_1            CIRCULAR             1.50     1.77     0.38     1.50        1    10.42
  285_2            CIRCULAR             1.50     1.77     0.38     1.50        1    10.42
  285_3            CIRCULAR             1.50     1.77     0.38     1.50        1    10.42
  285_4            CIRCULAR             1.50     1.77     0.38     1.50        1    10.42
  286_1            CIRCULAR             1.50     1.77     0.38     1.50        1    15.04
  286_2            CIRCULAR             1.50     1.77     0.38     1.50        1    15.05
  286_3            CIRCULAR             1.50     1.77     0.38     1.50        1    15.04
  287_1            CIRCULAR             1.00     0.79     0.25     1.00        1     4.08
  287_2            CIRCULAR             1.00     0.79     0.25     1.00        1     4.08
  295_1            CIRCULAR             3.00     7.07     0.75     3.00        1    56.34
  295_2            CIRCULAR             3.00     7.07     0.75     3.00        1    56.34
  295_3            CIRCULAR             3.00     7.07     0.75     3.00        1    56.34
  297_1            CIRCULAR             2.00     3.14     0.50     2.00        1    26.05
  297_2            CIRCULAR             2.00     3.14     0.50     2.00        1    26.05
  297_3            CIRCULAR             2.00     3.14     0.50     2.00        1    26.05
  297_4            CIRCULAR             2.00     3.14     0.50     2.00        1    26.05
  298_1            CIRCULAR             2.50     4.91     0.62     2.50        1    24.22
  298_2            CIRCULAR             2.50     4.91     0.62     2.50        1    24.22
  
  
  ****************
  Analysis Options
  ****************
  Flow Units ............... CFS
  Process Models:
    Rainfall/Runoff ........ YES
    RDII ................... NO
    Snowmelt ............... NO
    Groundwater ............ NO
    Flow Routing ........... YES
    Ponding Allowed ........ NO
    Water Quality .......... YES
  Infiltration Method ...... HORTON
  Flow Routing Method ...... KINWAVE
  Starting Date ............ 01/01/2000 00:00:00
  Ending Date .............. 12/31/2000 23:55:00
  Antecedent Dry Days ...... 0.0
  Report Time Step ......... 01:00:00
  Wet Time Step ............ 00:15:00
  Dry Time Step ............ 02:00:00
  Routing Time Step ........ 300.00 sec
  
  
  *********************
  Rainfall File Summary
  *********************
  Station    First        Last         Recording   Periods    Periods    Periods
  ID         Date         Date         Frequency  w/Precip    Missing    Malfunc.
  -------------------------------------------------------------------------------
  
  
  ERROR 317: cannot open rainfall data file C:\NCIMM_Training\Data_Files\rdu.dat.

  Analysis begun on:  Mon Mar  9 22:28:15 2026
  Analysis ended on:  Mon Mar  9 22:28:15 2026
  Total elapsed time: < 1 sec