
  EPA STORM WATER MANAGEMENT MODEL - VERSION 5.2 (Build 5.2.4)
  ------------------------------------------------------------

  
  ERROR 207: duplicate ID name Fish at line 144 of [WEIR] section:
  Fish Weir2       Ovf              LBC-A2           TRANSVERSE 855.50     1.840      NO       0        0          YES


  Analysis begun on:  Sat Mar  7 21:51:21 2026
  Analysis ended on:  Sat Mar  7 21:51:21 2026
  Total elapsed time: < 1 sec