
  EPA STORM WATER MANAGEMENT MODEL - VERSION 5.2 (Build 5.2.4)
  ------------------------------------------------------------

  
  ERROR 207: duplicate ID name Tide at line 30 of [OUTFALL] section:
  Tide             10.00      FREE                  NO

  
  ERROR 207: duplicate ID name Tide at line 32 of [OUTFALL] section:
  Tide             10.00      FREE                  NO


  Analysis begun on:  Sat Mar  7 21:51:32 2026
  Analysis ended on:  Sat Mar  7 21:51:32 2026
  Total elapsed time: < 1 sec