
  EPA STORM WATER MANAGEMENT MODEL - VERSION 5.2 (Build 5.2.4)
  ------------------------------------------------------------

  
  ERROR 209: undefined object 0 at line 254 of [XSECT] section:
  S-A-280          IRREGULAR    0          0          0          0          301

  
  ERROR 209: undefined object 0 at line 255 of [XSECT] section:
  S-J-010          IRREGULAR    0          0          0          0          302

  
  ERROR 209: undefined object 0 at line 256 of [XSECT] section:
  S-A-270          IRREGULAR    0          0          0          0          101

  
  ERROR 209: undefined object 0 at line 258 of [XSECT] section:
  S-A-250          IRREGULAR    0          0          0          0          103

  
  ERROR 209: undefined object 0 at line 259 of [XSECT] section:
  S-I-020          IRREGULAR    0          0          0          0          303

  
  ERROR 209: undefined object 0 at line 261 of [XSECT] section:
  S-A-240          IRREGULAR    0          0          0          0          104

  
  ERROR 209: undefined object 0 at line 263 of [XSECT] section:
  S-A-220          IRREGULAR    0          0          0          0          106

  
  ERROR 209: undefined object 0 at line 264 of [XSECT] section:
  S-H-040          IRREGULAR    0          0          0          0          305

  
  ERROR 209: undefined object 0 at line 265 of [XSECT] section:
  S-H-030          IRREGULAR    0          0          0          0          107

  
  ERROR 209: undefined object 0 at line 267 of [XSECT] section:
  S-H-010          IRREGULAR    0          0          0          0          109

  
  ERROR 209: undefined object 0 at line 268 of [XSECT] section:
  S-A-210          IRREGULAR    0          0          0          0          110

  
  ERROR 209: undefined object 0 at line 269 of [XSECT] section:
  S-G-060          IRREGULAR    0          0          0          0          193

  
  ERROR 209: undefined object 0 at line 270 of [XSECT] section:
  S-G-050          IRREGULAR    0          0          0          0          195

  
  ERROR 209: undefined object 0 at line 271 of [XSECT] section:
  S-G-040          IRREGULAR    0          0          0          0          111

  
  ERROR 209: undefined object 0 at line 272 of [XSECT] section:
  S-G-070          IRREGULAR    0          0          0          0          112

  
  ERROR 209: undefined object 0 at line 273 of [XSECT] section:
  S-G-030          IRREGULAR    0          0          0          0          113

  
  ERROR 209: undefined object 0 at line 274 of [XSECT] section:
  S-G-020          IRREGULAR    0          0          0          0          114

  
  ERROR 209: undefined object 0 at line 275 of [XSECT] section:
  S-G-010          IRREGULAR    0          0          0          0          115

  
  ERROR 209: undefined object 0 at line 276 of [XSECT] section:
  S-A-200          IRREGULAR    0          0          0          0          116

  
  ERROR 209: undefined object 0 at line 277 of [XSECT] section:
  S-A-190          IRREGULAR    0          0          0          0          117

  
  ERROR 209: undefined object 0 at line 278 of [XSECT] section:
  S-A-180          IRREGULAR    0          0          0          0          118

  
  ERROR 209: undefined object 0 at line 279 of [XSECT] section:
  S-A-170          IRREGULAR    0          0          0          0          119

  
  ERROR 209: undefined object 0 at line 281 of [XSECT] section:
  S-A-150          IRREGULAR    0          0          0          0          121

  
  ERROR 209: undefined object 0 at line 282 of [XSECT] section:
  S-A-140          IRREGULAR    0          0          0          0          122

  
  ERROR 209: undefined object 0 at line 285 of [XSECT] section:
  S-A-130          IRREGULAR    0          0          0          0          123

  
  ERROR 209: undefined object 0 at line 286 of [XSECT] section:
  S-E-010          IRREGULAR    0          0          0          0          124

  
  ERROR 209: undefined object 0 at line 287 of [XSECT] section:
  S-A-120          IRREGULAR    0          0          0          0          125

  
  ERROR 209: undefined object 0 at line 289 of [XSECT] section:
  S-A-100          IRREGULAR    0          0          0          0          127

  
  ERROR 209: undefined object 0 at line 294 of [XSECT] section:
  S-A-080          IRREGULAR    0          0          0          0          130

  
  ERROR 209: undefined object 0 at line 298 of [XSECT] section:
  S-C-010          IRREGULAR    0          0          0          0          313

  
  ERROR 209: undefined object 0 at line 299 of [XSECT] section:
  S-A-070          IRREGULAR    0          0          0          0          131

  
  ERROR 209: undefined object 0 at line 300 of [XSECT] section:
  S-A-060          IRREGULAR    0          0          0          0          132

  
  ERROR 209: undefined object 0 at line 305 of [XSECT] section:
  S-A-040          IRREGULAR    0          0          0          0          137

  
  ERROR 209: undefined object 0 at line 306 of [XSECT] section:
  S-A-030          IRREGULAR    0          0          0          0          138

  
  ERROR 209: undefined object 0 at line 308 of [XSECT] section:
  S-A-010          IRREGULAR    0          0          0          0          140

  
  ERROR 209: undefined object 0 at line 309 of [XSECT] section:
  E-A-050          IRREGULAR    0          0          0          0          141

  
  ERROR 209: undefined object 0 at line 310 of [XSECT] section:
  E-B-020          IRREGULAR    0          0          0          0          142

  
  ERROR 209: undefined object 0 at line 311 of [XSECT] section:
  E-B-010          IRREGULAR    0          0          0          0          143

  
  ERROR 209: undefined object 0 at line 312 of [XSECT] section:
  E-A-040          IRREGULAR    0          0          0          0          144

  
  ERROR 209: undefined object 0 at line 313 of [XSECT] section:
  E-A-030          IRREGULAR    0          0          0          0          145

  
  ERROR 209: undefined object 0 at line 315 of [XSECT] section:
  E-A-010          IRREGULAR    0          0          0          0          147

  
  ERROR 209: undefined object 0 at line 316 of [XSECT] section:
  L-A-200          IRREGULAR    0          0          0          0          148

  
  ERROR 209: undefined object 0 at line 324 of [XSECT] section:
  P-A-120          IRREGULAR    0          0          0          0          150

  
  ERROR 209: undefined object 0 at line 327 of [XSECT] section:
  P-A-090          IRREGULAR    0          0          0          0          154

  
  ERROR 209: undefined object 0 at line 328 of [XSECT] section:
  P-C-040          IRREGULAR    0          0          0          0          155

  
  ERROR 209: undefined object 0 at line 329 of [XSECT] section:
  P-C-030          IRREGULAR    0          0          0          0          157

  
  ERROR 209: undefined object 0 at line 331 of [XSECT] section:
  P-C-010          IRREGULAR    0          0          0          0          159

  
  ERROR 209: undefined object 0 at line 332 of [XSECT] section:
  P-A-080          IRREGULAR    0          0          0          0          160

  
  ERROR 209: undefined object 0 at line 334 of [XSECT] section:
  P-A-060          IRREGULAR    0          0          0          0          162

  
  ERROR 209: undefined object 0 at line 336 of [XSECT] section:
  P-A-040          IRREGULAR    0          0          0          0          164

  
  ERROR 209: undefined object 0 at line 340 of [XSECT] section:
  P-A-030          IRREGULAR    0          0          0          0          166

  
  ERROR 209: undefined object 0 at line 342 of [XSECT] section:
  P-A-010          IRREGULAR    0          0          0          0          168

  
  ERROR 209: undefined object 0 at line 343 of [XSECT] section:
  L-A-190          IRREGULAR    0          0          0          0          169

  
  ERROR 209: undefined object 0 at line 344 of [XSECT] section:
  L-A-180          IRREGULAR    0          0          0          0          170

  
  ERROR 209: undefined object 0 at line 346 of [XSECT] section:
  L-A-160          IRREGULAR    0          0          0          0          172

  
  ERROR 209: undefined object 0 at line 348 of [XSECT] section:
  L-A-140          IRREGULAR    0          0          0          0          174

  
  ERROR 209: undefined object 0 at line 349 of [XSECT] section:
  L-A-130          IRREGULAR    0          0          0          0          175

  
  ERROR 209: undefined object 0 at line 351 of [XSECT] section:
  L-A-110          IRREGULAR    0          0          0          0          177

  
  ERROR 209: undefined object 0 at line 352 of [XSECT] section:
  L-A-100          IRREGULAR    0          0          0          0          178

  
  ERROR 209: undefined object 0 at line 353 of [XSECT] section:
  L-A-090          IRREGULAR    0          0          0          0          180

  
  ERROR 209: undefined object 0 at line 355 of [XSECT] section:
  L-A-070          IRREGULAR    0          0          0          0          182

  
  ERROR 209: undefined object 0 at line 356 of [XSECT] section:
  L-A-050          IRREGULAR    0          0          0          0          185

  
  ERROR 209: undefined object 0 at line 358 of [XSECT] section:
  L-A-030          IRREGULAR    0          0          0          0          187

  
  ERROR 209: undefined object 0 at line 360 of [XSECT] section:
  L-A-010          IRREGULAR    0          0          0          0          189


  Analysis begun on:  Sat Mar  7 21:51:27 2026
  Analysis ended on:  Sat Mar  7 21:51:27 2026
  Total elapsed time: < 1 sec