
  EPA STORM WATER MANAGEMENT MODEL - VERSION 5.2 (Build 5.2.4)
  ------------------------------------------------------------

  
  ERROR 211: invalid number  at line 36 of [XSECT] section:
  301              POWER        10.00      15.00      0          0          1

  
  ERROR 211: invalid number  at line 37 of [XSECT] section:
  251              POWER        10.00      15.00      0          0          1


  Analysis begun on:  Sat Mar  7 21:51:24 2026
  Analysis ended on:  Sat Mar  7 21:51:24 2026
  Total elapsed time: < 1 sec