
  EPA STORM WATER MANAGEMENT MODEL - VERSION 5.2 (Build 5.2.4)
  ------------------------------------------------------------

  
  ERROR 211: invalid number  at line 55 of [XSECT] section:
  18               CIRCULAR     0          0          0          0          1

  
  ERROR 211: invalid number  at line 56 of [XSECT] section:
  19               CIRCULAR     0          0          0          0          1


  Analysis begun on:  Sat Mar  7 21:51:28 2026
  Analysis ended on:  Sat Mar  7 21:51:28 2026
  Total elapsed time: < 1 sec