
  EPA STORM WATER MANAGEMENT MODEL - VERSION 5.2 (Build 5.2.4)
  ------------------------------------------------------------

  
  ERROR 209: undefined object ? at line 59 of [CONDUIT] section:
  234              ?                ?                0          0          0          0          0          0

  
  ERROR 211: invalid number  at line 79 of [XSECT] section:
  234              CIRCULAR     0          0          0          0          1


  Analysis begun on:  Sat Mar  7 21:51:26 2026
  Analysis ended on:  Sat Mar  7 21:51:26 2026
  Total elapsed time: < 1 sec