
  EPA STORM WATER MANAGEMENT MODEL - VERSION 5.2 (Build 5.2.4)
  ------------------------------------------------------------

   Yarra Storm Study 
  
  *************
  Element Count
  *************
  Number of rain gages ...... 1
  Number of subcatchments ... 6
  Number of nodes ........... 12
  Number of links ........... 9
  Number of pollutants ...... 0
  Number of land uses ....... 0
  
  
  ****************
  Raingage Summary
  ****************
                                                      Data       Recording
  Name                 Data Source                    Type       Interval 
  ------------------------------------------------------------------------
  5yr-24Hr~SCS~Type~2  RN#0                           CUMULATIVE   6 min.
  
  
  ********************
  Subcatchment Summary
  ********************
  Name                       Area     Width   %Imperv    %Slope Rain Gage            Outlet              
  -----------------------------------------------------------------------------------------------------------
  4/1#1                      1.55    150.00     20.00    2.0000 5yr-24Hr~SCS~Type~2  4/1                 
  3/2#1                      1.51    135.00     30.00    3.0000 5yr-24Hr~SCS~Type~2  3/2                 
  6/1#1                      0.14    225.00     45.00    5.0000 5yr-24Hr~SCS~Type~2  6/1                 
  5/2#1                      0.13    200.00     40.00    5.0000 5yr-24Hr~SCS~Type~2  5/2                 
  5/3#1                      0.29    350.00     60.00    1.0000 5yr-24Hr~SCS~Type~2  5/3                 
  5/4#1                      0.67    300.00     20.00    2.0000 5yr-24Hr~SCS~Type~2  5/4                 
  
  
  ************
  Node Summary
  ************
                                           Invert      Max.    Ponded    External
  Name                 Type                 Elev.     Depth      Area    Inflow  
  -------------------------------------------------------------------------------
  4/1                  JUNCTION           1285.34      8.00       0.0
  3/1                  JUNCTION           1271.00      8.00       0.0    Yes
  Junction             JUNCTION           1276.89      8.00       0.0
  3/2                  JUNCTION           1281.00      8.00       0.0
  6/1                  JUNCTION           1284.55      8.00       0.0
  5/1                  JUNCTION           1275.15      8.00       0.0    Yes
  5/2                  JUNCTION           1283.52      8.00       0.0
  5/3                  JUNCTION           1294.06      8.00       0.0
  5/4                  JUNCTION           1297.88      8.00       0.0
  3/375                OUTFALL            1270.00      2.00       0.0
  1                    OUTFALL            1270.00      2.00       0.0
  2                    OUTFALL               0.00      0.00       0.0
  
  
  ************
  Link Summary
  ************
  Name             From Node        To Node          Type            Length    %Slope Roughness
  ---------------------------------------------------------------------------------------------
  Pipe06           4/1              Junction         CONDUIT          175.1    4.8312    0.0140
  Pipe09           3/1              3/375            CONDUIT          164.2    0.6090    0.0140
  Pipe08           Junction         3/1              CONDUIT          106.7    5.5265    0.0140
  Pipe07           3/2              Junction         CONDUIT          108.3    3.7970    0.0140
  Pipe03           6/1              5/2              CONDUIT           30.9    3.3395    0.0140
  Pipe04           5/2              5/1              CONDUIT          113.8    7.3724    0.0140
  Pipe02           5/3              5/2              CONDUIT          199.7    5.2842    0.0140
  Pipe01           5/4              5/3              CONDUIT          168.3    2.2699    0.0140
  Pipe05           5/1              1                CONDUIT          357.9    1.4389    0.0140
  
  
  *********************
  Cross Section Summary
  *********************
                                        Full     Full     Hyd.     Max.   No. of     Full
  Conduit          Shape               Depth     Area     Rad.    Width  Barrels     Flow
  ---------------------------------------------------------------------------------------
  Pipe06           CIRCULAR             1.50     1.77     0.38     1.50        1    21.44
  Pipe09           CIRCULAR             2.00     3.14     0.50     2.00        1    16.39
  Pipe08           CIRCULAR             2.00     3.14     0.50     2.00        1    49.38
  Pipe07           CIRCULAR             1.50     1.77     0.38     1.50        1    19.01
  Pipe03           CIRCULAR             1.50     1.77     0.38     1.50        1    17.82
  Pipe04           CIRCULAR             2.00     3.14     0.50     2.00        1    57.04
  Pipe02           CIRCULAR             1.50     1.77     0.38     1.50        1    22.42
  Pipe01           CIRCULAR             1.50     1.77     0.38     1.50        1    14.70
  Pipe05           CIRCULAR             2.00     3.14     0.50     2.00        1    25.20
  
  
  ****************
  Analysis Options
  ****************
  Flow Units ............... CFS
  Process Models:
    Rainfall/Runoff ........ YES
    RDII ................... NO
    Snowmelt ............... NO
    Groundwater ............ NO
    Flow Routing ........... YES
    Ponding Allowed ........ NO
    Water Quality .......... NO
  Infiltration Method ...... GREEN_AMPT
  Flow Routing Method ...... DYNWAVE
  Surcharge Method ......... EXTRAN
  Starting Date ............ 01/01/2008 00:00:00
  Ending Date .............. 01/02/2008 00:00:00
  Antecedent Dry Days ...... 0.0
  Report Time Step ......... 00:01:00
  Wet Time Step ............ 00:01:00
  Dry Time Step ............ 00:00:00
  Routing Time Step ........ 60.00 sec
  Variable Time Step ....... YES
  Maximum Trials ........... 8
  Number of Threads ........ 1
  Head Tolerance ........... 0.005000 ft
  
  
  **************************        Volume         Depth
  Runoff Quantity Continuity     acre-feet        inches
  **************************     ---------       -------
  Total Precipitation ......         0.964         2.697
  Evaporation Loss .........         0.000         0.000
  Infiltration Loss ........         0.558         1.563
  Surface Runoff ...........         0.390         1.092
  Final Storage ............         0.015         0.043
  Continuity Error (%) .....        -0.042
  
  
  **************************        Volume        Volume
  Flow Routing Continuity        acre-feet      10^6 gal
  **************************     ---------     ---------
  Dry Weather Inflow .......         0.000         0.000
  Wet Weather Inflow .......         0.391         0.127
  Groundwater Inflow .......         0.000         0.000
  RDII Inflow ..............         0.000         0.000
  External Inflow ..........         1.242         0.405
  External Outflow .........         1.631         0.532
  Flooding Loss ............         0.000         0.000
  Evaporation Loss .........         0.000         0.000
  Exfiltration Loss ........         0.000         0.000
  Initial Stored Volume ....         0.000         0.000
  Final Stored Volume ......         0.000         0.000
  Continuity Error (%) .....         0.039
  
  
  ***************************
  Time-Step Critical Elements
  ***************************
  Link Pipe03 (95.78%)
  Link Pipe09 (3.41%)
  
  
  ********************************
  Highest Flow Instability Indexes
  ********************************
  All links are stable.
  
  
  *********************************
  Most Frequent Nonconverging Nodes
  *********************************
  Convergence obtained at all time steps.
  
  
  *************************
  Routing Time Step Summary
  *************************
  Minimum Time Step           :     2.03 sec
  Average Time Step           :    17.86 sec
  Maximum Time Step           :    60.00 sec
  % of Time in Steady State   :     0.00
  Average Iterations per Step :     2.00
  % of Steps Not Converging   :     0.00
  Time Step Frequencies       :
     60.000 - 23.031 sec      :    17.14 %
     23.031 -  8.841 sec      :    77.78 %
      8.841 -  3.393 sec      :     5.07 %
      3.393 -  1.303 sec      :     0.02 %
      1.303 -  0.500 sec      :     0.00 %
  
  
  ***************************
  Subcatchment Runoff Summary
  ***************************
  
  ------------------------------------------------------------------------------------------------------------------------------
                            Total      Total      Total      Total     Imperv       Perv      Total       Total     Peak  Runoff
                           Precip      Runon       Evap      Infil     Runoff     Runoff     Runoff      Runoff   Runoff   Coeff
  Subcatchment                 in         in         in         in         in         in         in    10^6 gal      CFS
  ------------------------------------------------------------------------------------------------------------------------------
  4/1#1                      2.70       0.00       0.00       1.74       0.51       0.42       0.93        0.04     2.70   0.343
  3/2#1                      2.70       0.00       0.00       1.51       0.76       0.37       1.14        0.05     3.01   0.421
  6/1#1                      2.70       0.00       0.00       1.17       1.15       0.32       1.47        0.01     0.50   0.544
  5/2#1                      2.70       0.00       0.00       1.27       1.02       0.35       1.37        0.00     0.47   0.508
  5/3#1                      2.70       0.00       0.00       0.85       1.53       0.23       1.76        0.01     1.03   0.652
  5/4#1                      2.70       0.00       0.00       1.71       0.51       0.45       0.96        0.02     1.77   0.357
  
  
  ******************
  Node Depth Summary
  ******************
  
  ---------------------------------------------------------------------------------
                                 Average  Maximum  Maximum  Time of Max    Reported
                                   Depth    Depth      HGL   Occurrence   Max Depth
  Node                 Type         Feet     Feet     Feet  days hr:min        Feet
  ---------------------------------------------------------------------------------
  4/1                  JUNCTION     0.05     0.36  1285.70     0  12:06        0.36
  3/1                  JUNCTION     0.16     1.56  1272.56     0  12:30        1.55
  Junction             JUNCTION     0.07     0.46  1277.35     0  12:06        0.46
  3/2                  JUNCTION     0.06     0.40  1281.40     0  12:06        0.40
  6/1                  JUNCTION     0.02     0.17  1284.72     0  12:00        0.17
  5/1                  JUNCTION     0.11     1.12  1276.27     0  12:30        1.12
  5/2                  JUNCTION     0.05     0.34  1283.86     0  12:00        0.34
  5/3                  JUNCTION     0.05     0.36  1294.42     0  12:00        0.35
  5/4                  JUNCTION     0.04     0.35  1298.23     0  12:00        0.35
  3/375                OUTFALL      0.15     1.44  1271.44     0  12:30        1.43
  1                    OUTFALL      0.10     1.12  1271.12     0  12:30        1.11
  2                    OUTFALL      0.00     0.00     0.00     0  00:00        0.00
  
  
  *******************
  Node Inflow Summary
  *******************
  
  -------------------------------------------------------------------------------------------------
                                  Maximum  Maximum                  Lateral       Total        Flow
                                  Lateral    Total  Time of Max      Inflow      Inflow     Balance
                                   Inflow   Inflow   Occurrence      Volume      Volume       Error
  Node                 Type           CFS      CFS  days hr:min    10^6 gal    10^6 gal     Percent
  -------------------------------------------------------------------------------------------------
  4/1                  JUNCTION      2.70     2.70     0  12:06       0.039       0.039       0.041
  3/1                  JUNCTION     14.99    16.01     0  12:30       0.202       0.288       0.052
  Junction             JUNCTION      0.00     5.69     0  12:06           0      0.0855      -0.020
  3/2                  JUNCTION      3.01     3.01     0  12:06      0.0465      0.0465       0.030
  6/1                  JUNCTION      0.50     0.50     0  12:00      0.0055      0.0055       0.017
  5/1                  JUNCTION     14.99    15.25     0  12:30       0.202       0.244       0.064
  5/2                  JUNCTION      0.47     3.65     0  12:00     0.00487      0.0417      -0.055
  5/3                  JUNCTION      1.03     2.76     0  12:00      0.0137      0.0313       0.031
  5/4                  JUNCTION      1.77     1.77     0  12:00      0.0176      0.0176       0.056
  3/375                OUTFALL       0.00    15.96     0  12:30           0       0.288       0.000
  1                    OUTFALL       0.00    15.19     0  12:30           0       0.244       0.000
  2                    OUTFALL       0.00     0.00     0  00:00           0           0       0.000 gal
  
  
  **********************
  Node Surcharge Summary
  **********************
  
  No nodes were surcharged.
  
  
  *********************
  Node Flooding Summary
  *********************
  
  No nodes were flooded.
  
  
  ***********************
  Outfall Loading Summary
  ***********************
  
  -----------------------------------------------------------
                         Flow       Avg       Max       Total
                         Freq      Flow      Flow      Volume
  Outfall Node           Pcnt       CFS       CFS    10^6 gal
  -----------------------------------------------------------
  3/375                 99.28      0.82     15.96       0.288
  1                     99.50      0.68     15.19       0.244
  2                      0.00      0.00      0.00       0.000
  -----------------------------------------------------------
  System                66.26      1.50     31.15       0.532
  
  
  ********************
  Link Flow Summary
  ********************
  
  -----------------------------------------------------------------------------
                                 Maximum  Time of Max   Maximum    Max/    Max/
                                  |Flow|   Occurrence   |Veloc|    Full    Full
  Link                 Type          CFS  days hr:min    ft/sec    Flow   Depth
  -----------------------------------------------------------------------------
  Pipe06               CONDUIT      2.69     0  12:06      6.90    0.13    0.27
  Pipe09               CONDUIT     15.96     0  12:30      6.33    0.97    0.75
  Pipe08               CONDUIT      5.68     0  12:06      6.38    0.11    0.44
  Pipe07               CONDUIT      3.01     0  12:06      7.17    0.16    0.29
  Pipe03               CONDUIT      0.50     0  12:00      2.78    0.03    0.17
  Pipe04               CONDUIT      3.64     0  12:00      7.46    0.06    0.30
  Pipe02               CONDUIT      2.73     0  12:00      8.75    0.12    0.23
  Pipe01               CONDUIT      1.75     0  12:00      5.53    0.12    0.24
  Pipe05               CONDUIT     15.19     0  12:30      8.39    0.60    0.56
  
  
  ***************************
  Flow Classification Summary
  ***************************
  
  -------------------------------------------------------------------------------------
                      Adjusted    ---------- Fraction of Time in Flow Class ---------- 
                       /Actual         Up    Down  Sub   Sup   Up    Down  Norm  Inlet 
  Conduit               Length    Dry  Dry   Dry   Crit  Crit  Crit  Crit  Ltd   Ctrl  
  -------------------------------------------------------------------------------------
  Pipe06                  1.00   0.00  0.00  0.00  0.00  0.99  0.00  0.00  0.99  0.00
  Pipe09                  1.00   0.01  0.00  0.00  0.31  0.68  0.00  0.00  0.02  0.00
  Pipe08                  1.00   0.01  0.00  0.00  0.23  0.76  0.00  0.00  0.99  0.00
  Pipe07                  1.00   0.01  0.00  0.00  0.00  0.99  0.00  0.00  0.99  0.00
  Pipe03                  1.00   0.00  0.00  0.00  0.99  0.01  0.00  0.00  0.99  0.00
  Pipe04                  1.00   0.00  0.00  0.00  0.04  0.96  0.00  0.00  0.99  0.00
  Pipe02                  1.00   0.00  0.00  0.00  0.00  0.99  0.00  0.00  0.20  0.00
  Pipe01                  1.00   0.00  0.00  0.00  0.24  0.76  0.00  0.00  0.98  0.00
  Pipe05                  1.00   0.01  0.00  0.00  0.00  0.99  0.00  0.00  0.07  0.00
  
  
  *************************
  Conduit Surcharge Summary
  *************************
  
  No conduits were surcharged.
  

  Analysis begun on:  Sat Mar  7 21:51:31 2026
  Analysis ended on:  Sat Mar  7 21:51:31 2026
  Total elapsed time: < 1 sec