
  EPA STORM WATER MANAGEMENT MODEL - VERSION 5.2 (Build 5.2.4)
  ------------------------------------------------------------

  
  ERROR 209: undefined object DeckFlow at line 39 of [CONDUIT] section:
  PierFlow         DeckFlow         4                50.00      0.0120     9.70       9.60       0          0

  
  ERROR 209: undefined object 10.00 at line 47 of [XSECT] section:
  US               IRREGULAR    10.00      0          0          0          1

  
  ERROR 209: undefined object 9.50 at line 49 of [XSECT] section:
  DS               IRREGULAR    9.50       0          0          0          1

  
  ERROR 211: invalid number  at line 50 of [XSECT] section:
  18               CIRCULAR     0          0          0          0          1

  
  ERROR 211: invalid number  at line 51 of [XSECT] section:
  21               CIRCULAR     0          0          0          0          1


  Analysis begun on:  Sat Mar  7 21:51:22 2026
  Analysis ended on:  Sat Mar  7 21:51:22 2026
  Total elapsed time: < 1 sec