
  EPA STORM WATER MANAGEMENT MODEL - VERSION 5.2 (Build 5.2.4)
  ------------------------------------------------------------

  
  ERROR 209: undefined object Overtop at line 39 of [CONDUIT] section:
  Culvert          Overtop          207              50.00      0.0130     25.00      24.90      0          0

  
  ERROR 209: undefined object 0 at line 46 of [XSECT] section:
  Section4         IRREGULAR    0          0          0          0          1

  
  ERROR 209: undefined object 0 at line 47 of [XSECT] section:
  Section3         IRREGULAR    0          0          0          0          1

  
  ERROR 209: undefined object 0 at line 49 of [XSECT] section:
  Section2         IRREGULAR    0          0          0          0          1

  
  ERROR 209: undefined object 0 at line 50 of [XSECT] section:
  Section1         IRREGULAR    0          0          0          0          1


  Analysis begun on:  Sat Mar  7 21:51:26 2026
  Analysis ended on:  Sat Mar  7 21:51:26 2026
  Total elapsed time: < 1 sec