
  EPA STORM WATER MANAGEMENT MODEL - VERSION 5.2 (Build 5.2.4)
  ------------------------------------------------------------

  
  ERROR 209: undefined object street151 at line 57 of [CONDUIT] section:
  pipe151          street151        26620152         62.00      0.0150     865.10     864.90     0          0

  
  ERROR 209: undefined object street156 at line 58 of [CONDUIT] section:
  pipe156          street156        26620158         193.00     0.0150     869.88     869.08     0          0

  
  ERROR 209: undefined object street152b at line 59 of [CONDUIT] section:
  pipe152b         street152b       26620268         188.00     0.0150     864.80     864.00     0          0

  
  ERROR 209: undefined object street268 at line 60 of [CONDUIT] section:
  pipe268          street268        26620267         193.00     0.0150     864.00     863.20     0          0

  
  ERROR 209: undefined object street09 at line 62 of [CONDUIT] section:
  pipe09           street09         25130008         525.00     0.0120     860.68     859.59     0          0

  
  ERROR 209: undefined object street18 at line 66 of [CONDUIT] section:
  pipe18           street18         25130009         498.00     0.0120     861.72     860.68     0          0

  
  ERROR 209: undefined object street158 at line 67 of [CONDUIT] section:
  pipe158          street158        26620267         38.00      0.0120     868.90     868.14     0          0

  
  ERROR 209: undefined object street267 at line 68 of [CONDUIT] section:
  pipe267          street267        26620269         59.00      0.0120     863.10     862.80     0          0

  
  ERROR 209: undefined object street123 at line 69 of [CONDUIT] section:
  pipe123          street123        26620168         239.00     0.0120     865.48     865.19     0          0

  
  ERROR 209: undefined object street168 at line 70 of [CONDUIT] section:
  pipe168          street168        26620185         180.00     0.0120     865.19     864.63     0          0

  
  ERROR 209: undefined object street185 at line 71 of [CONDUIT] section:
  pipe185          street185        26620189         217.00     0.0120     864.63     863.95     0          0

  
  ERROR 209: undefined object street152 at line 72 of [CONDUIT] section:
  pipe152          street152        26620198         237.00     0.0120     866.99     866.16     0          0

  
  ERROR 209: undefined object street198 at line 73 of [CONDUIT] section:
  pipe198          street198        26620189         627.00     0.0120     866.16     863.95     0          0

  
  ERROR 209: undefined object street189 at line 74 of [CONDUIT] section:
  pipe189          street189        26620173         220.00     0.0120     863.95     863.26     0          0

  
  ERROR 209: undefined object street173 at line 75 of [CONDUIT] section:
  pipe173          street173        26620162         170.00     0.0120     863.26     862.73     0          0

  
  ERROR 209: undefined object street249 at line 76 of [CONDUIT] section:
  pipe249          street249        26620237         291.00     0.0150     873.26     872.73     0          0

  
  ERROR 209: undefined object street209 at line 77 of [CONDUIT] section:
  pipe209          street209        26620200         257.00     0.0120     868.37     867.13     0          0

  
  ERROR 209: undefined object street200 at line 78 of [CONDUIT] section:
  pipe200          street200        26620168         238.00     0.0120     867.08     865.77     0          0

  
  ERROR 209: undefined object street237 at line 79 of [CONDUIT] section:
  pipe237          street237        26620209         233.00     0.0150     872.43     871.64     0          0

  
  ERROR 209: undefined object street269 at line 80 of [CONDUIT] section:
  pipe269          street269        25130018         424.00     0.0120     862.60     861.72     0          0

  
  ERROR 209: undefined object street162 at line 81 of [CONDUIT] section:
  pipe162          street162        26620269         43.00      0.0120     862.73     862.60     0          0


  Analysis begun on:  Sat Mar  7 21:51:23 2026
  Analysis ended on:  Sat Mar  7 21:51:23 2026
  Total elapsed time: < 1 sec