
  EPA STORM WATER MANAGEMENT MODEL - VERSION 5.2 (Build 5.2.4)
  ------------------------------------------------------------

  
  ERROR 209: undefined object Node_100 at line 1858 of [CONDUIT] section:
  100              Node_100         Node_16401639    502.00     0.0130     200.11     199.51     0          0

  
  ERROR 209: undefined object Node_102 at line 1859 of [CONDUIT] section:
  102              Node_102         Node_16411640    362.00     0.0130     200.51     200.11     0          0

  
  ERROR 209: undefined object Node_106 at line 1860 of [CONDUIT] section:
  106              Node_106         Node_16421641    455.00     0.0130     201.10     200.58     0          0

  
  ERROR 209: undefined object Node_107 at line 1861 of [CONDUIT] section:
  107              Node_107         Node_16431642    478.00     0.0130     201.65     201.10     0          0

  
  ERROR 209: undefined object Node_116 at line 1878 of [CONDUIT] section:
  116              Node_116         Node_16501651    321.00     0.0130     197.96     197.96     0          0

  
  ERROR 209: undefined object Node_122 at line 1977 of [CONDUIT] section:
  122              Node_122         Node_16511652    334.00     0.0130     197.56     197.10     0          0

  
  ERROR 209: undefined object Node_12251 at line 1978 of [CONDUIT] section:
  12251            Node_12251       Node_1118776     577.00     0.0130     203.20     200.61     0          0

  
  ERROR 209: undefined object Node_12255 at line 1979 of [CONDUIT] section:
  12255            Node_12255       Node_10601061    337.00     0.0130     395.38     392.96     0          0

  
  ERROR 209: undefined object Node_12257 at line 1980 of [CONDUIT] section:
  12257            Node_12257       Node_10611062    335.00     0.0130     392.79     390.64     0          0

  
  ERROR 209: undefined object Node_12259 at line 1981 of [CONDUIT] section:
  12259            Node_12259       Node_10621063    470.00     0.0130     390.54     387.52     0          0

  
  ERROR 209: undefined object Node_12261 at line 1982 of [CONDUIT] section:
  12261            Node_12261       Node_10631064    273.00     0.0130     387.42     385.80     0          0

  
  ERROR 209: undefined object Node_12263 at line 1983 of [CONDUIT] section:
  12263            Node_12263       Node_10641065    320.00     0.0130     385.69     383.61     0          0

  
  ERROR 209: undefined object Node_12265 at line 1984 of [CONDUIT] section:
  12265            Node_12265       Node_10651076    198.00     0.0130     383.50     382.00     0          0

  
  ERROR 209: undefined object Node_12284 at line 1985 of [CONDUIT] section:
  12284            Node_12284       Node_10661088    218.00     0.0130     325.03     314.02     0          0

  
  ERROR 209: undefined object Node_12286 at line 1986 of [CONDUIT] section:
  12286            Node_12286       Node_10671066    297.00     0.0130     334.24     325.03     0          0

  
  ERROR 209: undefined object Node_12288 at line 1987 of [CONDUIT] section:
  12288            Node_12288       Node_10681067    413.00     0.0130     339.67     334.24     0          0

  
  ERROR 209: undefined object Node_12290 at line 1988 of [CONDUIT] section:
  12290            Node_12290       Node_10691068    255.00     0.0130     343.88     339.67     0          0

  
  ERROR 209: undefined object Node_12291 at line 1989 of [CONDUIT] section:
  12291            Node_12291       Node_10701069    300.00     0.0130     347.99     344.09     0          0

  
  ERROR 209: undefined object Node_12319 at line 1990 of [CONDUIT] section:
  12319            Node_12319       Node_10711077    74.00      0.0130     358.32     357.85     0          0

  
  ERROR 209: undefined object Node_12321 at line 1991 of [CONDUIT] section:
  12321            Node_12321       Node_10721071    280.00     0.0130     360.31     358.41     0          0

  
  ERROR 209: undefined object Node_12323 at line 1992 of [CONDUIT] section:
  12323            Node_12323       Node_10731072    120.00     0.0130     361.38     360.41     0          0

  
  ERROR 209: undefined object Node_12326 at line 1993 of [CONDUIT] section:
  12326            Node_12326       Node_10741082    229.00     0.0130     369.79     365.62     0          0

  
  ERROR 209: undefined object Node_12328 at line 1994 of [CONDUIT] section:
  12328            Node_12328       Node_10751074    205.00     0.0130     379.56     370.77     0          0

  
  ERROR 209: undefined object Node_12329 at line 1995 of [CONDUIT] section:
  12329            Node_12329       Node_10761075    178.00     0.0130     381.98     379.98     0          0

  
  ERROR 209: undefined object Node_12381 at line 1996 of [CONDUIT] section:
  12381            Node_12381       Node_10821073    220.00     0.0130     365.54     361.38     0          0

  
  ERROR 209: undefined object Node_12416 at line 1997 of [CONDUIT] section:
  12416            Node_12416       Node_10831094    321.00     0.0130     262.22     254.25     0          0

  
  ERROR 209: undefined object Node_12417 at line 1998 of [CONDUIT] section:
  12417            Node_12417       Node_10841083    299.00     0.0130     268.68     262.22     0          0

  
  ERROR 209: undefined object Node_12419 at line 1999 of [CONDUIT] section:
  12419            Node_12419       Node_10851084    276.00     0.0130     275.34     268.55     0          0

  
  ERROR 209: undefined object Node_12421 at line 2000 of [CONDUIT] section:
  12421            Node_12421       Node_10861085    412.00     0.0130     291.94     275.40     0          0

  
  ERROR 209: undefined object Node_12423 at line 2001 of [CONDUIT] section:
  12423            Node_12423       Node_10871086    298.00     0.0130     302.28     291.94     0          0

  
  ERROR 209: undefined object Node_12424 at line 2002 of [CONDUIT] section:
  12424            Node_12424       Node_10881087    432.00     0.0130     314.02     302.28     0          0

  
  ERROR 209: undefined object Node_12426 at line 2003 of [CONDUIT] section:
  12426            Node_12426       Node_10891098    377.00     0.0130     228.48     218.71     0          0

  
  ERROR 209: undefined object Node_12428 at line 2004 of [CONDUIT] section:
  12428            Node_12428       Node_10911089    340.00     0.0130     234.34     228.48     0          0

  
  ERROR 209: undefined object Node_12430 at line 2005 of [CONDUIT] section:
  12430            Node_12430       Node_10921091    500.00     0.0130     240.13     234.34     0          0

  
  ERROR 209: undefined object Node_12432 at line 2006 of [CONDUIT] section:
  12432            Node_12432       Node_10931092    500.00     0.0130     246.18     240.13     0          0

  
  ERROR 209: undefined object Node_12433 at line 2007 of [CONDUIT] section:
  12433            Node_12433       Node_10941093    500.00     0.0130     254.25     245.18     0          0

  
  ERROR 209: undefined object Node_12436 at line 2008 of [CONDUIT] section:
  12436            Node_12436       Node_10951385    435.00     0.0130     264.56     226.63     0          0

  
  ERROR 209: undefined object Node_12439 at line 2009 of [CONDUIT] section:
  12439            Node_12439       Node_10971099    472.00     0.0130     212.27     204.20     0          0

  
  ERROR 209: undefined object Node_12440 at line 2010 of [CONDUIT] section:
  12440            Node_12440       Node_10981097    336.00     0.0130     218.67     212.36     0          0

  
  ERROR 209: undefined object Node_12442 at line 2011 of [CONDUIT] section:
  12442            Node_12442       Node_10991103    130.00     0.0130     203.58     202.62     0          0

  
  ERROR 209: undefined object Node_12445 at line 2012 of [CONDUIT] section:
  12445            Node_12445       Node_11001397    395.00     0.0130     198.83     198.48     0          0

  
  ERROR 209: undefined object Node_12447 at line 2013 of [CONDUIT] section:
  12447            Node_12447       Node_11011100    390.00     0.0130     199.30     198.88     0          0

  
  ERROR 209: undefined object Node_12449 at line 2014 of [CONDUIT] section:
  12449            Node_12449       Node_11021101    287.00     0.0130     199.66     199.35     0          0

  
  ERROR 209: undefined object Node_12450 at line 2015 of [CONDUIT] section:
  12450            Node_12450       Node_11031102    15.00      0.0130     199.85     199.79     0          0

  
  ERROR 209: undefined object Node_12452 at line 2016 of [CONDUIT] section:
  12452            Node_12452       Node_11041102    270.00     0.0130     200.27     199.71     0          0

  
  ERROR 209: undefined object Node_12454 at line 2017 of [CONDUIT] section:
  12454            Node_12454       Node_11051104    320.00     0.0130     200.38     200.32     0          0

  
  ERROR 209: undefined object Node_12456 at line 2018 of [CONDUIT] section:
  12456            Node_12456       Node_11061105    282.00     0.0130     200.73     200.43     0          0

  
  ERROR 209: undefined object Node_12458 at line 2019 of [CONDUIT] section:
  12458            Node_12458       Node_11071106    292.00     0.0130     201.11     200.78     0          0

  
  ERROR 209: undefined object Node_12460 at line 2020 of [CONDUIT] section:
  12460            Node_12460       Node_11081107    280.00     0.0130     201.45     201.16     0          0

  
  ERROR 209: undefined object Node_12462 at line 2021 of [CONDUIT] section:
  12462            Node_12462       Node_11091108    435.00     0.0130     202.00     201.50     0          0

  
  ERROR 209: undefined object Node_12467 at line 2022 of [CONDUIT] section:
  12467            Node_12467       Node_11101120    272.00     0.0130     189.20     188.76     0          0

  
  ERROR 209: undefined object Node_12472 at line 2023 of [CONDUIT] section:
  12472            Node_12472       Node_11111110    499.00     0.0130     189.93     189.20     0          0

  
  ERROR 209: undefined object Node_12474 at line 2024 of [CONDUIT] section:
  12474            Node_12474       Node_11121111    497.00     0.0130     190.84     189.93     0          0

  
  ERROR 209: undefined object Node_12476 at line 2025 of [CONDUIT] section:
  12476            Node_12476       Node_11131112    504.00     0.0130     191.75     190.84     0          0

  
  ERROR 209: undefined object Node_12478 at line 2026 of [CONDUIT] section:
  12478            Node_12478       Node_11141113    498.00     0.0130     192.46     191.72     0          0

  
  ERROR 209: undefined object Node_12480 at line 2027 of [CONDUIT] section:
  12480            Node_12480       Node_11151114    505.00     0.0130     193.37     192.46     0          0

  
  ERROR 209: undefined object Node_12482 at line 2028 of [CONDUIT] section:
  12482            Node_12482       Node_11161117    233.00     0.0130     202.85     202.61     0          0

  
  ERROR 209: undefined object Node_12483 at line 2029 of [CONDUIT] section:
  12483            Node_12483       Node_11171109    520.00     0.0130     202.56     202.05     0          0

  
  ERROR 209: undefined object Node_12485 at line 2030 of [CONDUIT] section:
  12485            Node_12485       Node_11181119    40.00      0.0130     205.09     203.20     0          0

  
  ERROR 209: undefined object Node_12486 at line 2031 of [CONDUIT] section:
  12486            Node_12486       Node_11191116    8.00       0.0130     202.70     202.70     0          0

  
  ERROR 209: undefined object Node_12488 at line 2032 of [CONDUIT] section:
  12488            Node_12488       Node_11201129    468.00     0.0130     188.76     187.83     0          0

  
  ERROR 209: undefined object Node_12491 at line 2033 of [CONDUIT] section:
  12491            Node_12491       Node_11211122    210.00     0.0130     195.47     195.00     0          0

  
  ERROR 209: undefined object Node_12493 at line 2034 of [CONDUIT] section:
  12493            Node_12493       Node_11221123    244.00     0.0130     194.90     194.36     0          0

  
  ERROR 209: undefined object Node_12495 at line 2035 of [CONDUIT] section:
  12495            Node_12495       Node_11231124    250.00     0.0130     194.26     193.71     0          0

  
  ERROR 209: undefined object Node_12497 at line 2036 of [CONDUIT] section:
  12497            Node_12497       Node_11241125    454.00     0.0130     193.61     191.18     0          0

  
  ERROR 209: undefined object Node_12499 at line 2037 of [CONDUIT] section:
  12499            Node_12499       Node_11251126    390.00     0.0130     191.08     190.22     0          0

  
  ERROR 209: undefined object Node_12501 at line 2038 of [CONDUIT] section:
  12501            Node_12501       Node_11261134    243.00     0.0130     190.02     189.49     0          0

  
  ERROR 209: undefined object Node_12503 at line 2039 of [CONDUIT] section:
  12503            Node_12503       Node_11291128    50.00      0.0130     187.83     187.56     0          0

  
  ERROR 209: undefined object Node_12505 at line 2040 of [CONDUIT] section:
  12505            Node_12505       Node_11341135    265.00     0.0130     189.39     188.71     0          0

  
  ERROR 209: undefined object Node_12506 at line 2041 of [CONDUIT] section:
  12506            Node_12506       Node_11351128    50.00      0.0130     188.71     188.60     0          0

  
  ERROR 209: undefined object Node_12511 at line 2042 of [CONDUIT] section:
  12511            Node_12511       Node_13831396    490.00     0.0130     207.98     205.00     0          0

  
  ERROR 209: undefined object Node_12513 at line 2043 of [CONDUIT] section:
  12513            Node_12513       Node_13841383    368.00     0.0130     210.36     208.14     0          0

  
  ERROR 209: undefined object Node_12514 at line 2044 of [CONDUIT] section:
  12514            Node_12514       Node_13851384    332.00     0.0130     224.81     210.52     0          0

  
  ERROR 209: undefined object Node_12519 at line 2045 of [CONDUIT] section:
  12519            Node_12519       Node_13881115    494.00     0.0130     194.25     193.37     0          0

  
  ERROR 209: undefined object Node_12521 at line 2046 of [CONDUIT] section:
  12521            Node_12521       Node_13891388    30.00      0.0130     194.54     194.40     0          0

  
  ERROR 209: undefined object Node_12523 at line 2047 of [CONDUIT] section:
  12523            Node_12523       Node_13901389    46.65      0.0130     194.89     194.64     0          0

  
  ERROR 209: undefined object Node_12525 at line 2048 of [CONDUIT] section:
  12525            Node_12525       Node_13901398    480.00     0.0130     195.14     192.25     0          0

  
  ERROR 209: undefined object Node_12527 at line 2049 of [CONDUIT] section:
  12527            Node_12527       Node_13901391    215.39     0.0130     195.39     195.30     0          0

  
  ERROR 209: undefined object Node_12528 at line 2050 of [CONDUIT] section:
  12528            Node_12528       Node_13921391    9.00       0.0130     195.44     195.42     0          0

  
  ERROR 209: undefined object Node_12530 at line 2051 of [CONDUIT] section:
  12530            Node_12530       Node_13931391    408.00     0.0130     196.71     195.38     0          0

  
  ERROR 209: undefined object Node_12532 at line 2052 of [CONDUIT] section:
  12532            Node_12532       Node_13941393    472.00     0.0130     198.29     196.76     0          0

  
  ERROR 209: undefined object Node_12534 at line 2053 of [CONDUIT] section:
  12534            Node_12534       Node_13951394    147.00     0.0130     202.20     198.66     0          0

  
  ERROR 209: undefined object Node_12535 at line 2054 of [CONDUIT] section:
  12535            Node_12535       Node_13961395    385.00     0.0130     204.86     202.32     0          0

  
  ERROR 209: undefined object Node_12538 at line 2055 of [CONDUIT] section:
  12538            Node_12538       Node_13941397    39.00      0.0130     198.48     198.40     0          0

  
  ERROR 209: undefined object Node_128 at line 2056 of [CONDUIT] section:
  128              Node_128         Node_16521653    294.00     0.0130     196.26     195.93     0          0

  
  ERROR 209: undefined object Node_134 at line 2057 of [CONDUIT] section:
  134              Node_134         Node_16531654    481.00     0.0130     195.26     194.67     0          0

  
  ERROR 209: undefined object Node_136 at line 2058 of [CONDUIT] section:
  136              Node_136         Node_16541670    445.00     0.0130     194.67     194.13     0          0

  
  ERROR 209: undefined object Node_13696 at line 2059 of [CONDUIT] section:
  13696            Node_13696       Node_17091721    647.00     0.0130     152.50     144.60     0          0

  
  ERROR 209: undefined object Node_13707 at line 2060 of [CONDUIT] section:
  13707            Node_13707       Node_17101711    134.00     0.0130     153.96     153.66     0          0

  
  ERROR 209: undefined object Node_13709 at line 2061 of [CONDUIT] section:
  13709            Node_13709       Node_17111713    100.00     0.0130     153.66     153.43     0          0

  
  ERROR 209: undefined object Node_13730 at line 2062 of [CONDUIT] section:
  13730            Node_13730       Node_17121710    350.00     0.0130     155.47     153.96     0          0

  
  ERROR 209: undefined object Node_13734 at line 2063 of [CONDUIT] section:
  13734            Node_13734       Node_17131714    200.00     0.0130     153.45     153.01     0          0

  
  ERROR 209: undefined object Node_13735 at line 2064 of [CONDUIT] section:
  13735            Node_13735       Node_17141709    230.00     0.0130     153.01     152.50     0          0

  
  ERROR 209: undefined object Node_13737 at line 2065 of [CONDUIT] section:
  13737            Node_13737       Node_17211720    302.00     0.0130     140.88     140.86     0          0

  
  ERROR 209: undefined object Node_13832 at line 2066 of [CONDUIT] section:
  13832            Node_13832       Node_18641712    350.00     0.0130     155.47     153.96     0          0

  
  ERROR 209: undefined object Node_13840 at line 2067 of [CONDUIT] section:
  13840            Node_13840       Node_18651864    541.00     0.0130     156.69     155.47     0          0

  
  ERROR 209: undefined object Node_13844 at line 2068 of [CONDUIT] section:
  13844            Node_13844       Node_18701865    80.00      0.0130     157.84     156.69     0          0

  
  ERROR 209: undefined object Node_13852 at line 2069 of [CONDUIT] section:
  13852            Node_13852       Node_18771878    331.00     0.0130     154.43     154.10     0          0

  
  ERROR 209: undefined object Node_13854 at line 2070 of [CONDUIT] section:
  13854            Node_13854       Node_18781879    351.00     0.0130     154.10     153.73     0          0

  
  ERROR 209: undefined object Node_13859 at line 2071 of [CONDUIT] section:
  13859            Node_13859       Node_18791880    407.00     0.0130     153.73     153.38     0          0

  
  Maximum error count exceeded.

  Analysis begun on:  Sat Mar  7 21:51:24 2026
  Analysis ended on:  Sat Mar  7 21:51:24 2026
  Total elapsed time: < 1 sec