
  EPA STORM WATER MANAGEMENT MODEL - VERSION 5.2 (Build 5.2.4)
  ------------------------------------------------------------

  
  ERROR 209: undefined object 0 at line 96 of [XSECT] section:
  PC-1RC           IRREGULAR    0          0          0          0          1

  
  ERROR 209: undefined object 0 at line 97 of [XSECT] section:
  PC-2RC           IRREGULAR    0          0          0          0          1

  
  ERROR 209: undefined object 0 at line 100 of [XSECT] section:
  PC-4RC           IRREGULAR    0          0          0          0          1

  
  ERROR 209: undefined object 0 at line 101 of [XSECT] section:
  NP-1RC           IRREGULAR    0          0          0          0          1

  
  ERROR 209: undefined object 0 at line 102 of [XSECT] section:
  NP-2RC           IRREGULAR    0          0          0          0          1

  
  ERROR 209: undefined object 0 at line 103 of [XSECT] section:
  NP-3RC           IRREGULAR    0          0          0          0          1

  
  ERROR 209: undefined object 0 at line 105 of [XSECT] section:
  NP-4RC           IRREGULAR    0          0          0          0          1

  
  ERROR 209: undefined object 0 at line 107 of [XSECT] section:
  PC6ARC           IRREGULAR    0          0          0          0          1

  
  ERROR 209: undefined object 0 at line 108 of [XSECT] section:
  PC6BRC           IRREGULAR    0          0          0          0          1

  
  ERROR 209: undefined object 0 at line 109 of [XSECT] section:
  PC-7RC           IRREGULAR    0          0          0          0          1

  
  ERROR 209: undefined object 0 at line 110 of [XSECT] section:
  PC-8RC           IRREGULAR    0          0          0          0          1

  
  ERROR 209: undefined object 0 at line 111 of [XSECT] section:
  T3-1RC           IRREGULAR    0          0          0          0          1

  
  ERROR 209: undefined object 0 at line 112 of [XSECT] section:
  T3-2RC           IRREGULAR    0          0          0          0          1

  
  ERROR 209: undefined object 0 at line 114 of [XSECT] section:
  T3-3RC           IRREGULAR    0          0          0          0          1

  
  ERROR 209: undefined object 0 at line 117 of [XSECT] section:
  T3-5RC           IRREGULAR    0          0          0          0          1

  
  ERROR 209: undefined object 0 at line 118 of [XSECT] section:
  T3-6RC           IRREGULAR    0          0          0          0          1

  
  ERROR 209: undefined object 0 at line 119 of [XSECT] section:
  TC-1RC           IRREGULAR    0          0          0          0          1

  
  ERROR 209: undefined object 0 at line 120 of [XSECT] section:
  TC-3RC           IRREGULAR    0          0          0          0          1

  
  ERROR 209: undefined object 0 at line 125 of [XSECT] section:
  TC-4RC           IRREGULAR    0          0          0          0          1

  
  ERROR 209: undefined object 0 at line 127 of [XSECT] section:
  TC-5RC           IRREGULAR    0          0          0          0          1


  Analysis begun on:  Sat Mar  7 21:51:33 2026
  Analysis ended on:  Sat Mar  7 21:51:33 2026
  Total elapsed time: < 1 sec