
  EPA STORM WATER MANAGEMENT MODEL - VERSION 5.2 (Build 5.2.4)
  ------------------------------------------------------------

  
  *************
  Element Count
  *************
  Number of rain gages ...... 12
  Number of subcatchments ... 12
  Number of nodes ........... 25
  Number of links ........... 22
  Number of pollutants ...... 1
  Number of land uses ....... 0
  
  
  *****************
  Pollutant Summary
  *****************
                               Ppt.      GW         Kdecay
  Name                 Units   Concen.   Concen.    1/days    CoPollutant
  -----------------------------------------------------------------------
  Pollutants_-_1        MG/L      0.00      0.00      0.00
  
  
  ****************
  Raingage Summary
  ****************
                                                      Data       Recording
  Name                 Data Source                    Type       Interval 
  ------------------------------------------------------------------------
  10-Yr_TI-2024-143-10_Yr_15_min-10yr 10-Yr_TI-2024-143-10_Yr_15_min-10yr_TS INTENSITY    1 min.
  10-Yr_TI-2024-143-10_Yr_30_min-10yr 10-Yr_TI-2024-143-10_Yr_30_min-10yr_TS INTENSITY    1 min.
  10-Yr_TI-2024-143-10_Yr_45_min-10yr 10-Yr_TI-2024-143-10_Yr_45_min-10yr_TS INTENSITY    1 min.
  10-Yr_TI-2024-143-10_Yr_60_min-10yr 10-Yr_TI-2024-143-10_Yr_60_min-10yr_TS INTENSITY    1 min.
  10-Yr_TI-2024-143-10_Yr_90_min-10yr 10-Yr_TI-2024-143-10_Yr_90_min-10yr_TS INTENSITY    1 min.
  10-Yr_TI-2024-143-10_Yr_120_min-10yr 10-Yr_TI-2024-143-10_Yr_120_min-10yr_TS INTENSITY    1 min.
  10-Yr_TI-2024-143-10_Yr_180_min-10yr 10-Yr_TI-2024-143-10_Yr_180_min-10yr_TS INTENSITY    1 min.
  10-Yr_TI-2024-143-10_Yr_240_min-10yr 10-Yr_TI-2024-143-10_Yr_240_min-10yr_TS INTENSITY    1 min.
  10-Yr_TI-2024-143-10_Yr_300_min-10yr 10-Yr_TI-2024-143-10_Yr_300_min-10yr_TS INTENSITY    1 min.
  10-Yr_TI-2024-143-10_Yr_360_min-10yr 10-Yr_TI-2024-143-10_Yr_360_min-10yr_TS INTENSITY    1 min.
  10-Yr_TI-2024-143-10_Yr_720_min-10yr 10-Yr_TI-2024-143-10_Yr_720_min-10yr_TS INTENSITY    1 min.
  10-Yr_TI-2024-143-10_Yr_1440_min-10yr 10-Yr_TI-2024-143-10_Yr_1440_min-10yr_TS INTENSITY    1 min.
  
  
  ********************
  Subcatchment Summary
  ********************
  Name                       Area     Width   %Imperv    %Slope Rain Gage            Outlet              
  -----------------------------------------------------------------------------------------------------------
  CM-50                      1.01     82.00     60.00    0.3333 10-Yr_TI-2024-143-10_Yr_1440_min-10yr CB-82_Surface_Loading
  CM-51                      0.22     45.00     90.00    2.0000 10-Yr_TI-2024-143-10_Yr_1440_min-10yr CB-82_Surface_Loading
  CM-52                      0.17     45.00     90.00    2.0000 10-Yr_TI-2024-143-10_Yr_1440_min-10yr CB-82_Surface       
  CM-53                      0.18     45.00     90.00    2.0000 10-Yr_TI-2024-143-10_Yr_1440_min-10yr CB-83_Surface       
  CM-54                      0.23     45.00     90.00    2.0000 10-Yr_TI-2024-143-10_Yr_1440_min-10yr CB-85_Surface_Loading
  CM-55                      0.25     45.00     90.00    2.0000 10-Yr_TI-2024-143-10_Yr_1440_min-10yr CB-86_Surface_Loading
  CM-56                      0.20     45.00     90.00    2.0000 10-Yr_TI-2024-143-10_Yr_1440_min-10yr CB-86_Surface       
  CM-57                      0.23     45.00     90.00    2.0000 10-Yr_TI-2024-143-10_Yr_1440_min-10yr CB-87_Surface       
  CM-58                      0.27     45.00     90.00    2.0000 10-Yr_TI-2024-143-10_Yr_1440_min-10yr CB-89_Surface_Loading
  CM-59                      0.67     54.00     60.00    0.3333 10-Yr_TI-2024-143-10_Yr_1440_min-10yr CB-82_Surface       
  CM-61                      0.95     82.00     60.00    0.3333 10-Yr_TI-2024-143-10_Yr_1440_min-10yr CB-86_Surface_Loading
  CM-62                      0.56     54.00     60.00    0.3333 10-Yr_TI-2024-143-10_Yr_1440_min-10yr CB-86_Surface       
  
  
  ************
  Node Summary
  ************
                                           Invert      Max.    Ponded    External
  Name                 Type                 Elev.     Depth      Area    Inflow  
  -------------------------------------------------------------------------------
  MH-956               JUNCTION             98.50      1.60       0.0
  MH-957               JUNCTION             98.30      1.70       0.0
  MH-958               JUNCTION             98.20      1.70       0.0
  MH-959               JUNCTION             98.00      2.00       0.0
  CB-82                JUNCTION             99.00      1.00       0.0
  CB-82_Surface        JUNCTION            100.00      0.10     500.0
  CB-82_Surface_Loading JUNCTION            100.30      0.10       0.0
  CB-83                JUNCTION             98.90      1.00       0.0
  CB-83_Surface        JUNCTION             99.90      0.10     500.0
  CB-84                JUNCTION             98.80      1.00       0.0
  CB-84_Surface        JUNCTION             99.80      0.10     500.0
  CB-85                JUNCTION             98.90      1.00       0.0
  CB-85_Surface        JUNCTION             99.90      0.10     500.0
  CB-85_Surface_Loading JUNCTION            100.20      0.10       0.0
  CB-86                JUNCTION             99.00      1.00       0.0
  CB-86_Surface        JUNCTION            100.00      0.10     500.0
  CB-86_Surface_Loading JUNCTION            100.30      0.10       0.0
  CB-87                JUNCTION             98.90      1.00       0.0
  CB-87_Surface        JUNCTION             99.90      0.10     500.0
  CB-88                JUNCTION             98.80      1.00       0.0
  CB-88_Surface        JUNCTION             99.80      0.10     500.0
  CB-89                JUNCTION             98.90      1.00       0.0
  CB-89_Surface        JUNCTION             99.90      0.10     500.0
  CB-89_Surface_Loading JUNCTION            100.20      0.10       0.0
  O-23                 OUTFALL              97.96      0.50       0.0
  
  
  ************
  Link Summary
  ************
  Name             From Node        To Node          Type            Length    %Slope Roughness
  ---------------------------------------------------------------------------------------------
  GU-194           CB-82_Surface    CB-83_Surface    CONDUIT           44.4    0.2251    0.0130
  GU-195           CB-83_Surface    CB-84_Surface    CONDUIT           43.7    0.2289    0.0130
  GU-196           CB-85_Surface    CB-84_Surface    CONDUIT           47.5    0.2105    0.0130
  GU-197           CB-86_Surface    CB-87_Surface    CONDUIT           42.8    0.2337    0.0130
  GU-198           CB-87_Surface    CB-88_Surface    CONDUIT           45.4    0.2201    0.0130
  GU-199           CB-89_Surface    CB-88_Surface    CONDUIT           51.5    0.1941    0.0130
  CB-82_Incoming   CB-82_Surface_Loading CB-82_Surface    CONDUIT           30.5    1.0001    0.0130
  CB-85_Incoming   CB-85_Surface_Loading CB-85_Surface    CONDUIT           30.5    1.0001    0.0130
  CB-86_Incoming   CB-86_Surface_Loading CB-86_Surface    CONDUIT           30.5    1.0001    0.0130
  CB-89_Incoming   CB-89_Surface_Loading CB-89_Surface    CONDUIT           30.5    1.0001    0.0130
  CO-465           MH-956           MH-957           CONDUIT           35.5    0.2814    0.0110
  CO-466           MH-957           MH-958           CONDUIT           44.0    0.2272    0.0120
  CO-467           MH-958           MH-959           CONDUIT           51.5    0.1941    0.0120
  CO-468           MH-959           O-23             CONDUIT           22.4    0.1787    0.0120
  CO-469           CB-82            MH-956           CONDUIT           36.9    1.3561    0.0110
  CO-470           CB-86            MH-956           CONDUIT           22.8    2.1942    0.0110
  CO-471           CB-83            MH-957           CONDUIT           35.1    1.7102    0.0110
  CO-472           CB-87            MH-957           CONDUIT           20.5    2.9321    0.0110
  CO-473           CB-84            MH-958           CONDUIT           36.0    1.6681    0.0110
  CO-474           CB-88            MH-958           CONDUIT           19.6    3.0631    0.0110
  CO-475           CB-85            MH-959           CONDUIT           40.4    2.2261    0.0110
  CO-476           CB-89            MH-959           CONDUIT           20.8    4.3392    0.0110
  
  
  *********************
  Cross Section Summary
  *********************
                                        Full     Full     Hyd.     Max.   No. of     Full
  Conduit          Shape               Depth     Area     Rad.    Width  Barrels     Flow
  ---------------------------------------------------------------------------------------
  GU-194           GU-194_Street        0.10     0.25     0.05     5.00        1   121.87
  GU-195           GU-195_Street        0.10     0.25     0.05     5.00        1   122.90
  GU-196           GU-196_Street        0.10     0.25     0.05     5.00        1   117.86
  GU-197           GU-197_Street        0.10     0.25     0.05     5.00        1   124.18
  GU-198           GU-198_Street        0.10     0.25     0.05     5.00        1   120.52
  GU-199           GU-199_Street        0.10     0.25     0.05     5.00        1   113.16
  CB-82_Incoming   CB-82_Incoming_Street     0.10     0.25     0.05     5.00        1   256.88
  CB-85_Incoming   CB-85_Incoming_Street     0.10     0.25     0.05     5.00        1   256.88
  CB-86_Incoming   CB-86_Incoming_Street     0.10     0.25     0.05     5.00        1   256.88
  CB-89_Incoming   CB-89_Incoming_Street     0.10     0.25     0.05     5.00        1   256.88
  CO-465           CIRCULAR             0.30     0.07     0.07     0.30        1    60.41
  CO-466           CIRCULAR             0.40     0.13     0.10     0.40        1   107.55
  CO-467           CIRCULAR             0.40     0.13     0.10     0.40        1    99.40
  CO-468           CIRCULAR             0.50     0.20     0.12     0.50        1   172.94
  CO-469           CIRCULAR             0.25     0.05     0.06     0.25        1    81.85
  CO-470           CIRCULAR             0.25     0.05     0.06     0.25        1   104.11
  CO-471           CIRCULAR             0.25     0.05     0.06     0.25        1    91.91
  CO-472           CIRCULAR             0.25     0.05     0.06     0.25        1   120.35
  CO-473           CIRCULAR             0.25     0.05     0.06     0.25        1    90.78
  CO-474           CIRCULAR             0.25     0.05     0.06     0.25        1   123.01
  CO-475           CIRCULAR             0.25     0.05     0.06     0.25        1   104.87
  CO-476           CIRCULAR             0.25     0.05     0.06     0.25        1   146.41
  
  
  **************
  Street Summary
  **************

  Street GU-194_Street
  Area:  
              0.0004     0.0016     0.0036     0.0064     0.0100 
              0.0144     0.0196     0.0256     0.0324     0.0400 
              0.0484     0.0576     0.0676     0.0784     0.0900 
              0.1024     0.1156     0.1296     0.1444     0.1600 
              0.1764     0.1936     0.2116     0.2304     0.2500 
              0.2704     0.2916     0.3136     0.3364     0.3600 
              0.3844     0.4096     0.4356     0.4624     0.4900 
              0.5184     0.5476     0.5776     0.6084     0.6400 
              0.6724     0.7056     0.7396     0.7744     0.8100 
              0.8464     0.8836     0.9216     0.9604     1.0000 
  Hrad:  
              0.0200     0.0400     0.0600     0.0800     0.1000 
              0.1200     0.1400     0.1600     0.1800     0.2000 
              0.2200     0.2400     0.2600     0.2800     0.3000 
              0.3200     0.3400     0.3600     0.3800     0.4000 
              0.4200     0.4400     0.4600     0.4800     0.5000 
              0.5200     0.5400     0.5600     0.5800     0.6000 
              0.6200     0.6400     0.6600     0.6800     0.7000 
              0.7200     0.7400     0.7600     0.7800     0.8000 
              0.8200     0.8400     0.8600     0.8800     0.9000 
              0.9200     0.9400     0.9600     0.9800     1.0000 
  Width: 
              0.0200     0.0400     0.0600     0.0800     0.1000 
              0.1200     0.1400     0.1600     0.1800     0.2000 
              0.2200     0.2400     0.2600     0.2800     0.3000 
              0.3200     0.3400     0.3600     0.3800     0.4000 
              0.4200     0.4400     0.4600     0.4800     0.5000 
              0.5200     0.5400     0.5600     0.5800     0.6000 
              0.6200     0.6400     0.6600     0.6800     0.7000 
              0.7200     0.7400     0.7600     0.7800     0.8000 
              0.8200     0.8400     0.8600     0.8800     0.9000 
              0.9200     0.9400     0.9600     0.9800     1.0000 

  Street GU-195_Street
  Area:  
              0.0004     0.0016     0.0036     0.0064     0.0100 
              0.0144     0.0196     0.0256     0.0324     0.0400 
              0.0484     0.0576     0.0676     0.0784     0.0900 
              0.1024     0.1156     0.1296     0.1444     0.1600 
              0.1764     0.1936     0.2116     0.2304     0.2500 
              0.2704     0.2916     0.3136     0.3364     0.3600 
              0.3844     0.4096     0.4356     0.4624     0.4900 
              0.5184     0.5476     0.5776     0.6084     0.6400 
              0.6724     0.7056     0.7396     0.7744     0.8100 
              0.8464     0.8836     0.9216     0.9604     1.0000 
  Hrad:  
              0.0200     0.0400     0.0600     0.0800     0.1000 
              0.1200     0.1400     0.1600     0.1800     0.2000 
              0.2200     0.2400     0.2600     0.2800     0.3000 
              0.3200     0.3400     0.3600     0.3800     0.4000 
              0.4200     0.4400     0.4600     0.4800     0.5000 
              0.5200     0.5400     0.5600     0.5800     0.6000 
              0.6200     0.6400     0.6600     0.6800     0.7000 
              0.7200     0.7400     0.7600     0.7800     0.8000 
              0.8200     0.8400     0.8600     0.8800     0.9000 
              0.9200     0.9400     0.9600     0.9800     1.0000 
  Width: 
              0.0200     0.0400     0.0600     0.0800     0.1000 
              0.1200     0.1400     0.1600     0.1800     0.2000 
              0.2200     0.2400     0.2600     0.2800     0.3000 
              0.3200     0.3400     0.3600     0.3800     0.4000 
              0.4200     0.4400     0.4600     0.4800     0.5000 
              0.5200     0.5400     0.5600     0.5800     0.6000 
              0.6200     0.6400     0.6600     0.6800     0.7000 
              0.7200     0.7400     0.7600     0.7800     0.8000 
              0.8200     0.8400     0.8600     0.8800     0.9000 
              0.9200     0.9400     0.9600     0.9800     1.0000 

  Street GU-196_Street
  Area:  
              0.0004     0.0016     0.0036     0.0064     0.0100 
              0.0144     0.0196     0.0256     0.0324     0.0400 
              0.0484     0.0576     0.0676     0.0784     0.0900 
              0.1024     0.1156     0.1296     0.1444     0.1600 
              0.1764     0.1936     0.2116     0.2304     0.2500 
              0.2704     0.2916     0.3136     0.3364     0.3600 
              0.3844     0.4096     0.4356     0.4624     0.4900 
              0.5184     0.5476     0.5776     0.6084     0.6400 
              0.6724     0.7056     0.7396     0.7744     0.8100 
              0.8464     0.8836     0.9216     0.9604     1.0000 
  Hrad:  
              0.0200     0.0400     0.0600     0.0800     0.1000 
              0.1200     0.1400     0.1600     0.1800     0.2000 
              0.2200     0.2400     0.2600     0.2800     0.3000 
              0.3200     0.3400     0.3600     0.3800     0.4000 
              0.4200     0.4400     0.4600     0.4800     0.5000 
              0.5200     0.5400     0.5600     0.5800     0.6000 
              0.6200     0.6400     0.6600     0.6800     0.7000 
              0.7200     0.7400     0.7600     0.7800     0.8000 
              0.8200     0.8400     0.8600     0.8800     0.9000 
              0.9200     0.9400     0.9600     0.9800     1.0000 
  Width: 
              0.0200     0.0400     0.0600     0.0800     0.1000 
              0.1200     0.1400     0.1600     0.1800     0.2000 
              0.2200     0.2400     0.2600     0.2800     0.3000 
              0.3200     0.3400     0.3600     0.3800     0.4000 
              0.4200     0.4400     0.4600     0.4800     0.5000 
              0.5200     0.5400     0.5600     0.5800     0.6000 
              0.6200     0.6400     0.6600     0.6800     0.7000 
              0.7200     0.7400     0.7600     0.7800     0.8000 
              0.8200     0.8400     0.8600     0.8800     0.9000 
              0.9200     0.9400     0.9600     0.9800     1.0000 

  Street GU-197_Street
  Area:  
              0.0004     0.0016     0.0036     0.0064     0.0100 
              0.0144     0.0196     0.0256     0.0324     0.0400 
              0.0484     0.0576     0.0676     0.0784     0.0900 
              0.1024     0.1156     0.1296     0.1444     0.1600 
              0.1764     0.1936     0.2116     0.2304     0.2500 
              0.2704     0.2916     0.3136     0.3364     0.3600 
              0.3844     0.4096     0.4356     0.4624     0.4900 
              0.5184     0.5476     0.5776     0.6084     0.6400 
              0.6724     0.7056     0.7396     0.7744     0.8100 
              0.8464     0.8836     0.9216     0.9604     1.0000 
  Hrad:  
              0.0200     0.0400     0.0600     0.0800     0.1000 
              0.1200     0.1400     0.1600     0.1800     0.2000 
              0.2200     0.2400     0.2600     0.2800     0.3000 
              0.3200     0.3400     0.3600     0.3800     0.4000 
              0.4200     0.4400     0.4600     0.4800     0.5000 
              0.5200     0.5400     0.5600     0.5800     0.6000 
              0.6200     0.6400     0.6600     0.6800     0.7000 
              0.7200     0.7400     0.7600     0.7800     0.8000 
              0.8200     0.8400     0.8600     0.8800     0.9000 
              0.9200     0.9400     0.9600     0.9800     1.0000 
  Width: 
              0.0200     0.0400     0.0600     0.0800     0.1000 
              0.1200     0.1400     0.1600     0.1800     0.2000 
              0.2200     0.2400     0.2600     0.2800     0.3000 
              0.3200     0.3400     0.3600     0.3800     0.4000 
              0.4200     0.4400     0.4600     0.4800     0.5000 
              0.5200     0.5400     0.5600     0.5800     0.6000 
              0.6200     0.6400     0.6600     0.6800     0.7000 
              0.7200     0.7400     0.7600     0.7800     0.8000 
              0.8200     0.8400     0.8600     0.8800     0.9000 
              0.9200     0.9400     0.9600     0.9800     1.0000 

  Street GU-198_Street
  Area:  
              0.0004     0.0016     0.0036     0.0064     0.0100 
              0.0144     0.0196     0.0256     0.0324     0.0400 
              0.0484     0.0576     0.0676     0.0784     0.0900 
              0.1024     0.1156     0.1296     0.1444     0.1600 
              0.1764     0.1936     0.2116     0.2304     0.2500 
              0.2704     0.2916     0.3136     0.3364     0.3600 
              0.3844     0.4096     0.4356     0.4624     0.4900 
              0.5184     0.5476     0.5776     0.6084     0.6400 
              0.6724     0.7056     0.7396     0.7744     0.8100 
              0.8464     0.8836     0.9216     0.9604     1.0000 
  Hrad:  
              0.0200     0.0400     0.0600     0.0800     0.1000 
              0.1200     0.1400     0.1600     0.1800     0.2000 
              0.2200     0.2400     0.2600     0.2800     0.3000 
              0.3200     0.3400     0.3600     0.3800     0.4000 
              0.4200     0.4400     0.4600     0.4800     0.5000 
              0.5200     0.5400     0.5600     0.5800     0.6000 
              0.6200     0.6400     0.6600     0.6800     0.7000 
              0.7200     0.7400     0.7600     0.7800     0.8000 
              0.8200     0.8400     0.8600     0.8800     0.9000 
              0.9200     0.9400     0.9600     0.9800     1.0000 
  Width: 
              0.0200     0.0400     0.0600     0.0800     0.1000 
              0.1200     0.1400     0.1600     0.1800     0.2000 
              0.2200     0.2400     0.2600     0.2800     0.3000 
              0.3200     0.3400     0.3600     0.3800     0.4000 
              0.4200     0.4400     0.4600     0.4800     0.5000 
              0.5200     0.5400     0.5600     0.5800     0.6000 
              0.6200     0.6400     0.6600     0.6800     0.7000 
              0.7200     0.7400     0.7600     0.7800     0.8000 
              0.8200     0.8400     0.8600     0.8800     0.9000 
              0.9200     0.9400     0.9600     0.9800     1.0000 

  Street GU-199_Street
  Area:  
              0.0004     0.0016     0.0036     0.0064     0.0100 
              0.0144     0.0196     0.0256     0.0324     0.0400 
              0.0484     0.0576     0.0676     0.0784     0.0900 
              0.1024     0.1156     0.1296     0.1444     0.1600 
              0.1764     0.1936     0.2116     0.2304     0.2500 
              0.2704     0.2916     0.3136     0.3364     0.3600 
              0.3844     0.4096     0.4356     0.4624     0.4900 
              0.5184     0.5476     0.5776     0.6084     0.6400 
              0.6724     0.7056     0.7396     0.7744     0.8100 
              0.8464     0.8836     0.9216     0.9604     1.0000 
  Hrad:  
              0.0200     0.0400     0.0600     0.0800     0.1000 
              0.1200     0.1400     0.1600     0.1800     0.2000 
              0.2200     0.2400     0.2600     0.2800     0.3000 
              0.3200     0.3400     0.3600     0.3800     0.4000 
              0.4200     0.4400     0.4600     0.4800     0.5000 
              0.5200     0.5400     0.5600     0.5800     0.6000 
              0.6200     0.6400     0.6600     0.6800     0.7000 
              0.7200     0.7400     0.7600     0.7800     0.8000 
              0.8200     0.8400     0.8600     0.8800     0.9000 
              0.9200     0.9400     0.9600     0.9800     1.0000 
  Width: 
              0.0200     0.0400     0.0600     0.0800     0.1000 
              0.1200     0.1400     0.1600     0.1800     0.2000 
              0.2200     0.2400     0.2600     0.2800     0.3000 
              0.3200     0.3400     0.3600     0.3800     0.4000 
              0.4200     0.4400     0.4600     0.4800     0.5000 
              0.5200     0.5400     0.5600     0.5800     0.6000 
              0.6200     0.6400     0.6600     0.6800     0.7000 
              0.7200     0.7400     0.7600     0.7800     0.8000 
              0.8200     0.8400     0.8600     0.8800     0.9000 
              0.9200     0.9400     0.9600     0.9800     1.0000 

  Street CB-82_Incoming_Street
  Area:  
              0.0004     0.0016     0.0036     0.0064     0.0100 
              0.0144     0.0196     0.0256     0.0324     0.0400 
              0.0484     0.0576     0.0676     0.0784     0.0900 
              0.1024     0.1156     0.1296     0.1444     0.1600 
              0.1764     0.1936     0.2116     0.2304     0.2500 
              0.2704     0.2916     0.3136     0.3364     0.3600 
              0.3844     0.4096     0.4356     0.4624     0.4900 
              0.5184     0.5476     0.5776     0.6084     0.6400 
              0.6724     0.7056     0.7396     0.7744     0.8100 
              0.8464     0.8836     0.9216     0.9604     1.0000 
  Hrad:  
              0.0200     0.0400     0.0600     0.0800     0.1000 
              0.1200     0.1400     0.1600     0.1800     0.2000 
              0.2200     0.2400     0.2600     0.2800     0.3000 
              0.3200     0.3400     0.3600     0.3800     0.4000 
              0.4200     0.4400     0.4600     0.4800     0.5000 
              0.5200     0.5400     0.5600     0.5800     0.6000 
              0.6200     0.6400     0.6600     0.6800     0.7000 
              0.7200     0.7400     0.7600     0.7800     0.8000 
              0.8200     0.8400     0.8600     0.8800     0.9000 
              0.9200     0.9400     0.9600     0.9800     1.0000 
  Width: 
              0.0200     0.0400     0.0600     0.0800     0.1000 
              0.1200     0.1400     0.1600     0.1800     0.2000 
              0.2200     0.2400     0.2600     0.2800     0.3000 
              0.3200     0.3400     0.3600     0.3800     0.4000 
              0.4200     0.4400     0.4600     0.4800     0.5000 
              0.5200     0.5400     0.5600     0.5800     0.6000 
              0.6200     0.6400     0.6600     0.6800     0.7000 
              0.7200     0.7400     0.7600     0.7800     0.8000 
              0.8200     0.8400     0.8600     0.8800     0.9000 
              0.9200     0.9400     0.9600     0.9800     1.0000 

  Street CB-85_Incoming_Street
  Area:  
              0.0004     0.0016     0.0036     0.0064     0.0100 
              0.0144     0.0196     0.0256     0.0324     0.0400 
              0.0484     0.0576     0.0676     0.0784     0.0900 
              0.1024     0.1156     0.1296     0.1444     0.1600 
              0.1764     0.1936     0.2116     0.2304     0.2500 
              0.2704     0.2916     0.3136     0.3364     0.3600 
              0.3844     0.4096     0.4356     0.4624     0.4900 
              0.5184     0.5476     0.5776     0.6084     0.6400 
              0.6724     0.7056     0.7396     0.7744     0.8100 
              0.8464     0.8836     0.9216     0.9604     1.0000 
  Hrad:  
              0.0200     0.0400     0.0600     0.0800     0.1000 
              0.1200     0.1400     0.1600     0.1800     0.2000 
              0.2200     0.2400     0.2600     0.2800     0.3000 
              0.3200     0.3400     0.3600     0.3800     0.4000 
              0.4200     0.4400     0.4600     0.4800     0.5000 
              0.5200     0.5400     0.5600     0.5800     0.6000 
              0.6200     0.6400     0.6600     0.6800     0.7000 
              0.7200     0.7400     0.7600     0.7800     0.8000 
              0.8200     0.8400     0.8600     0.8800     0.9000 
              0.9200     0.9400     0.9600     0.9800     1.0000 
  Width: 
              0.0200     0.0400     0.0600     0.0800     0.1000 
              0.1200     0.1400     0.1600     0.1800     0.2000 
              0.2200     0.2400     0.2600     0.2800     0.3000 
              0.3200     0.3400     0.3600     0.3800     0.4000 
              0.4200     0.4400     0.4600     0.4800     0.5000 
              0.5200     0.5400     0.5600     0.5800     0.6000 
              0.6200     0.6400     0.6600     0.6800     0.7000 
              0.7200     0.7400     0.7600     0.7800     0.8000 
              0.8200     0.8400     0.8600     0.8800     0.9000 
              0.9200     0.9400     0.9600     0.9800     1.0000 

  Street CB-86_Incoming_Street
  Area:  
              0.0004     0.0016     0.0036     0.0064     0.0100 
              0.0144     0.0196     0.0256     0.0324     0.0400 
              0.0484     0.0576     0.0676     0.0784     0.0900 
              0.1024     0.1156     0.1296     0.1444     0.1600 
              0.1764     0.1936     0.2116     0.2304     0.2500 
              0.2704     0.2916     0.3136     0.3364     0.3600 
              0.3844     0.4096     0.4356     0.4624     0.4900 
              0.5184     0.5476     0.5776     0.6084     0.6400 
              0.6724     0.7056     0.7396     0.7744     0.8100 
              0.8464     0.8836     0.9216     0.9604     1.0000 
  Hrad:  
              0.0200     0.0400     0.0600     0.0800     0.1000 
              0.1200     0.1400     0.1600     0.1800     0.2000 
              0.2200     0.2400     0.2600     0.2800     0.3000 
              0.3200     0.3400     0.3600     0.3800     0.4000 
              0.4200     0.4400     0.4600     0.4800     0.5000 
              0.5200     0.5400     0.5600     0.5800     0.6000 
              0.6200     0.6400     0.6600     0.6800     0.7000 
              0.7200     0.7400     0.7600     0.7800     0.8000 
              0.8200     0.8400     0.8600     0.8800     0.9000 
              0.9200     0.9400     0.9600     0.9800     1.0000 
  Width: 
              0.0200     0.0400     0.0600     0.0800     0.1000 
              0.1200     0.1400     0.1600     0.1800     0.2000 
              0.2200     0.2400     0.2600     0.2800     0.3000 
              0.3200     0.3400     0.3600     0.3800     0.4000 
              0.4200     0.4400     0.4600     0.4800     0.5000 
              0.5200     0.5400     0.5600     0.5800     0.6000 
              0.6200     0.6400     0.6600     0.6800     0.7000 
              0.7200     0.7400     0.7600     0.7800     0.8000 
              0.8200     0.8400     0.8600     0.8800     0.9000 
              0.9200     0.9400     0.9600     0.9800     1.0000 

  Street CB-89_Incoming_Street
  Area:  
              0.0004     0.0016     0.0036     0.0064     0.0100 
              0.0144     0.0196     0.0256     0.0324     0.0400 
              0.0484     0.0576     0.0676     0.0784     0.0900 
              0.1024     0.1156     0.1296     0.1444     0.1600 
              0.1764     0.1936     0.2116     0.2304     0.2500 
              0.2704     0.2916     0.3136     0.3364     0.3600 
              0.3844     0.4096     0.4356     0.4624     0.4900 
              0.5184     0.5476     0.5776     0.6084     0.6400 
              0.6724     0.7056     0.7396     0.7744     0.8100 
              0.8464     0.8836     0.9216     0.9604     1.0000 
  Hrad:  
              0.0200     0.0400     0.0600     0.0800     0.1000 
              0.1200     0.1400     0.1600     0.1800     0.2000 
              0.2200     0.2400     0.2600     0.2800     0.3000 
              0.3200     0.3400     0.3600     0.3800     0.4000 
              0.4200     0.4400     0.4600     0.4800     0.5000 
              0.5200     0.5400     0.5600     0.5800     0.6000 
              0.6200     0.6400     0.6600     0.6800     0.7000 
              0.7200     0.7400     0.7600     0.7800     0.8000 
              0.8200     0.8400     0.8600     0.8800     0.9000 
              0.9200     0.9400     0.9600     0.9800     1.0000 
  Width: 
              0.0200     0.0400     0.0600     0.0800     0.1000 
              0.1200     0.1400     0.1600     0.1800     0.2000 
              0.2200     0.2400     0.2600     0.2800     0.3000 
              0.3200     0.3400     0.3600     0.3800     0.4000 
              0.4200     0.4400     0.4600     0.4800     0.5000 
              0.5200     0.5400     0.5600     0.5800     0.6000 
              0.6200     0.6400     0.6600     0.6800     0.7000 
              0.7200     0.7400     0.7600     0.7800     0.8000 
              0.8200     0.8400     0.8600     0.8800     0.9000 
              0.9200     0.9400     0.9600     0.9800     1.0000 
  
  
  ****************
  Analysis Options
  ****************
  Flow Units ............... LPS
  Process Models:
    Rainfall/Runoff ........ YES
    RDII ................... NO
    Snowmelt ............... NO
    Groundwater ............ NO
    Flow Routing ........... YES
    Ponding Allowed ........ YES
    Water Quality .......... YES
  Infiltration Method ...... CURVE_NUMBER
  Flow Routing Method ...... DYNWAVE
  Surcharge Method ......... EXTRAN
  Starting Date ............ 01/01/2000 00:00:00
  Ending Date .............. 01/02/2000 00:00:00
  Antecedent Dry Days ...... 0.0
  Report Time Step ......... 00:01:00
  Wet Time Step ............ 00:01:00
  Dry Time Step ............ 01:00:00
  Routing Time Step ........ 1.00 sec
  Variable Time Step ....... YES
  Maximum Trials ........... 8
  Number of Threads ........ 1
  Head Tolerance ........... 0.001524 m
  
  
  **************************        Volume         Depth
  Runoff Quantity Continuity     hectare-m            mm
  **************************     ---------       -------
  Total Precipitation ......         0.322        65.035
  Evaporation Loss .........         0.000         0.000
  Infiltration Loss ........         0.067        13.617
  Surface Runoff ...........         0.242        48.905
  Final Storage ............         0.012         2.518
  Continuity Error (%) .....        -0.006
  
  
  **************************Pollutants_-_1
  Runoff Quality Continuity             kg
  **************************    ----------
  Initial Buildup ..........         0.000
  Surface Buildup ..........         0.000
  Wet Deposition ...........         0.000
  Sweeping Removal .........         0.000
  Infiltration Loss ........         0.000
  BMP Removal ..............         0.000
  Surface Runoff ...........         0.000
  Remaining Buildup ........         0.000
  Continuity Error (%) .....         0.000
  
  
  **************************        Volume        Volume
  Flow Routing Continuity        hectare-m      10^6 ltr
  **************************     ---------     ---------
  Dry Weather Inflow .......         0.000         0.000
  Wet Weather Inflow .......         0.242         2.422
  Groundwater Inflow .......         0.000         0.000
  RDII Inflow ..............         0.000         0.000
  External Inflow ..........         0.000         0.000
  External Outflow .........         0.241         2.414
  Flooding Loss ............         0.000         0.000
  Evaporation Loss .........         0.000         0.000
  Exfiltration Loss ........         0.000         0.000
  Initial Stored Volume ....         0.000         0.000
  Final Stored Volume ......         0.001         0.007
  Continuity Error (%) .....         0.006
  
  
  **************************Pollutants_-_1
  Quality Routing Continuity            kg
  **************************    ----------
  Dry Weather Inflow .......         0.000
  Wet Weather Inflow .......         0.000
  Groundwater Inflow .......         0.000
  RDII Inflow ..............         0.000
  External Inflow ..........         0.000
  External Outflow .........         0.000
  Flooding Loss ............         0.000
  Exfiltration Loss ........         0.000
  Mass Reacted .............         0.000
  Initial Stored Mass ......         0.000
  Final Stored Mass ........         0.000
  Continuity Error (%) .....         0.000
  
  
  ***************************
  Time-Step Critical Elements
  ***************************
  None
  
  
  ********************************
  Highest Flow Instability Indexes
  ********************************
  All links are stable.
  
  
  *********************************
  Most Frequent Nonconverging Nodes
  *********************************
  Convergence obtained at all time steps.
  
  
  *************************
  Routing Time Step Summary
  *************************
  Minimum Time Step           :     0.50 sec
  Average Time Step           :     1.00 sec
  Maximum Time Step           :     1.00 sec
  % of Time in Steady State   :     0.00
  Average Iterations per Step :     2.00
  % of Steps Not Converging   :     0.00
  Time Step Frequencies       :
      1.000 -  0.871 sec      :   100.00 %
      0.871 -  0.758 sec      :     0.00 %
      0.758 -  0.660 sec      :     0.00 %
      0.660 -  0.574 sec      :     0.00 %
      0.574 -  0.500 sec      :     0.00 %
  
  
  ***************************
  Subcatchment Runoff Summary
  ***************************
  
  ------------------------------------------------------------------------------------------------------------------------------
                            Total      Total      Total      Total     Imperv       Perv      Total       Total     Peak  Runoff
                           Precip      Runon       Evap      Infil     Runoff     Runoff     Runoff      Runoff   Runoff   Coeff
  Subcatchment                 mm         mm         mm         mm         mm         mm         mm    10^6 ltr      LPS
  ------------------------------------------------------------------------------------------------------------------------------
  CM-50                     65.04       0.00       0.00      18.58      38.70      42.91      42.91        0.43    32.68   0.660
  CM-51                     65.04       0.00       0.00       4.64      58.33       1.33      59.67        0.13    11.95   0.917
  CM-52                     65.04       0.00       0.00       4.64      58.36       1.34      59.70        0.10     9.48   0.918
  CM-53                     65.04       0.00       0.00       4.64      58.35       1.34      59.69        0.11     9.97   0.918
  CM-54                     65.04       0.00       0.00       4.64      58.33       1.33      59.66        0.14    12.43   0.917
  CM-55                     65.04       0.00       0.00       4.64      58.31       1.33      59.65        0.15    13.69   0.917
  CM-56                     65.04       0.00       0.00       4.64      58.34       1.34      59.68        0.12    10.80   0.918
  CM-57                     65.04       0.00       0.00       4.64      58.33       1.33      59.66        0.14    12.37   0.917
  CM-58                     65.04       0.00       0.00       4.64      58.30       1.33      59.63        0.16    14.86   0.917
  CM-59                     65.04       0.00       0.00      18.58      38.70      42.91      42.91        0.29    21.57   0.660
  CM-61                     65.04       0.00       0.00      18.58      38.71      42.97      42.97        0.41    31.28   0.661
  CM-62                     65.04       0.00       0.00      18.58      38.73      43.08      43.08        0.24    18.82   0.662
  
  
  ****************************
  Subcatchment Washoff Summary
  ****************************
  
  ----------------------------------
                      Pollutants_-_1
  Subcatchment                    kg
  ----------------------------------
  CM-50                        0.000
  CM-51                        0.000
  CM-52                        0.000
  CM-53                        0.000
  CM-54                        0.000
  CM-55                        0.000
  CM-56                        0.000
  CM-57                        0.000
  CM-58                        0.000
  CM-59                        0.000
  CM-61                        0.000
  CM-62                        0.000
  ----------------------------------
  System                       0.000
  
  
  ******************
  Node Depth Summary
  ******************
  
  ---------------------------------------------------------------------------------
                                 Average  Maximum  Maximum  Time of Max    Reported
                                   Depth    Depth      HGL   Occurrence   Max Depth
  Node                 Type       Meters   Meters   Meters  days hr:min      Meters
  ---------------------------------------------------------------------------------
  MH-956               JUNCTION     0.04     0.21    98.71     0  12:21        0.21
  MH-957               JUNCTION     0.08     0.41    98.71     0  12:21        0.41
  MH-958               JUNCTION     0.14     0.51    98.71     0  12:21        0.51
  MH-959               JUNCTION     0.12     0.35    98.35     0  12:21        0.35
  CB-82                JUNCTION     0.02     0.04    99.04     0  12:15        0.04
  CB-82_Surface        JUNCTION     0.03     0.08   100.08     0  12:15        0.08
  CB-82_Surface_Loading JUNCTION     0.02     0.05   100.36     0  12:15        0.05
  CB-83                JUNCTION     0.03     0.05    98.95     0  12:16        0.05
  CB-83_Surface        JUNCTION     0.03     0.08    99.98     0  12:16        0.08
  CB-84                JUNCTION     0.05     0.19    98.99     0  12:22        0.19
  CB-84_Surface        JUNCTION     0.03     0.12    99.92     0  12:21        0.12
  CB-85                JUNCTION     0.01     0.02    98.92     0  12:15        0.02
  CB-85_Surface        JUNCTION     0.02     0.04    99.94     0  12:15        0.04
  CB-85_Surface_Loading JUNCTION     0.01     0.03   100.24     0  12:15        0.03
  CB-86                JUNCTION     0.02     0.04    99.04     0  12:15        0.04
  CB-86_Surface        JUNCTION     0.03     0.08   100.08     0  12:15        0.08
  CB-86_Surface_Loading JUNCTION     0.02     0.05   100.36     0  12:15        0.05
  CB-87                JUNCTION     0.02     0.05    98.95     0  12:15        0.05
  CB-87_Surface        JUNCTION     0.03     0.08    99.98     0  12:15        0.08
  CB-88                JUNCTION     0.04     0.14    98.94     0  12:21        0.14
  CB-88_Surface        JUNCTION     0.03     0.13    99.93     0  12:21        0.13
  CB-89                JUNCTION     0.01     0.02    98.92     0  12:15        0.02
  CB-89_Surface        JUNCTION     0.02     0.04    99.94     0  12:15        0.04
  CB-89_Surface_Loading JUNCTION     0.01     0.03   100.24     0  12:15        0.03
  O-23                 OUTFALL      0.10     0.28    98.24     0  12:21        0.28
  
  
  *******************
  Node Inflow Summary
  *******************
  
  -------------------------------------------------------------------------------------------------
                                  Maximum  Maximum                  Lateral       Total        Flow
                                  Lateral    Total  Time of Max      Inflow      Inflow     Balance
                                   Inflow   Inflow   Occurrence      Volume      Volume       Error
  Node                 Type           LPS      LPS  days hr:min    10^6 ltr    10^6 ltr     Percent
  -------------------------------------------------------------------------------------------------
  MH-956               JUNCTION      0.00     9.01     0  12:15           0       0.218       0.125
  MH-957               JUNCTION      0.00    25.42     0  12:21           0       0.629       0.068
  MH-958               JUNCTION      0.00   164.86     0  12:21           0        2.32       0.079
  MH-959               JUNCTION      0.00   168.19     0  12:21           0        2.42       0.026
  CB-82                JUNCTION      4.49     4.49     0  12:15       0.109       0.109       0.027
  CB-82_Surface        JUNCTION     25.98    69.54     0  12:15       0.282       0.847       0.075
  CB-82_Surface_Loading JUNCTION     43.75    43.75     0  12:15       0.566       0.566       0.021
  CB-83                JUNCTION      9.10     9.10     0  12:15       0.209       0.209       0.020
  CB-83_Surface        JUNCTION     -3.74    69.42     0  12:15     -0.0996        0.85       0.080
  CB-84                JUNCTION     68.12    68.12     0  12:21       0.836       0.836       0.008
  CB-84_Surface        JUNCTION    -68.12    78.92     0  12:15      -0.836       0.836       0.000
  CB-85                JUNCTION      2.13     2.13     0  12:15      0.0474      0.0474       0.029
  CB-85_Surface        JUNCTION     -2.13    12.43     0  12:15     -0.0474       0.137      -0.051
  CB-85_Surface_Loading JUNCTION     12.43    12.43     0  12:15       0.137       0.137       0.017
  CB-86                JUNCTION      4.52     4.52     0  12:15       0.109       0.109       0.017
  CB-86_Surface        JUNCTION     24.75    68.80     0  12:15       0.249       0.809       0.073
  CB-86_Surface_Loading JUNCTION     44.23    44.23     0  12:15        0.56        0.56       0.022
  CB-87                JUNCTION      8.94     8.94     0  12:15       0.202       0.202       0.012
  CB-87_Surface        JUNCTION      4.51    71.36     0  12:15     -0.0659       0.816       0.083
  CB-88                JUNCTION     71.38    71.38     0  12:21       0.852       0.852       0.004
  CB-88_Surface        JUNCTION    -71.38    83.03     0  12:15      -0.852       0.853       0.000
  CB-89                JUNCTION      2.37     2.37     0  12:15       0.053       0.053       0.018
  CB-89_Surface        JUNCTION     -2.37    14.85     0  12:15      -0.053       0.164      -0.028
  CB-89_Surface_Loading JUNCTION     14.86    14.86     0  12:15       0.164       0.164       0.016
  O-23                 OUTFALL       0.00   168.18     0  12:21           0        2.41       0.000
  
  
  **********************
  Node Surcharge Summary
  **********************
  
  Surcharging occurs when water rises above the top of the highest conduit.
  ---------------------------------------------------------------------
                                               Max. Height   Min. Depth
                                   Hours       Above Crown    Below Rim
  Node                 Type      Surcharged         Meters       Meters
  ---------------------------------------------------------------------
  MH-957               JUNCTION        0.16          0.013        1.287
  MH-958               JUNCTION        0.66          0.107        1.193
  CB-84_Surface        JUNCTION        1.03          0.024        0.000
  CB-88_Surface        JUNCTION        1.03          0.028        0.000
  
  
  *********************
  Node Flooding Summary
  *********************
  
  Flooding refers to all water that overflows a node, whether it ponds or not.
  --------------------------------------------------------------------------
                                                             Total   Maximum
                                 Maximum   Time of Max       Flood    Ponded
                        Hours       Rate    Occurrence      Volume     Depth
  Node                 Flooded       LPS   days hr:min    10^6 ltr    Meters
  --------------------------------------------------------------------------
  CB-84_Surface           1.03     14.20      0  12:12       0.017     0.024
  CB-88_Surface           1.03     15.64      0  12:08       0.020     0.028
  
  
  ***********************
  Outfall Loading Summary
  ***********************
  
  -------------------------------------------------------------------------
                         Flow       Avg       Max       Total         Total
                         Freq      Flow      Flow      VolumePollutants_-_1
  Outfall Node           Pcnt       LPS       LPS    10^6 ltr            kg
  -------------------------------------------------------------------------
  O-23                  99.20     28.17    168.18       2.414         0.000
  -------------------------------------------------------------------------
  System                99.20     28.17    168.18       2.414         0.000
  
  
  *******************
  Street Flow Summary
  *******************
  
  ---------------------------------------------------------------------------------------------------------------------------------------
                                                                                        Peak     Avg.   Bypass     Back     Peak     Peak
                        Peak   Maximum   Maximum                                        Flow     Flow     Flow     Flow  Capture   Bypass
                        Flow    Spread     Depth  Inlet             Inlet     Inlet  Capture  Capture     Freq     Freq  / Inlet     Flow
  Street Conduit         LPS         m         m  Design            Location            Pcnt     Pcnt     Pcnt     Pcnt      LPS      LPS
  ---------------------------------------------------------------------------------------------------------------------------------------
  GU-194              68.971     4.033     0.081  Side_Entry        ON-GRADE      1    13.20    40.28    98.91     0.00     9.10    59.87
  GU-195              68.732     4.510     0.090  Side_Entry_Sag    ON-SAG        1    95.22    99.77     2.03     0.00    65.45     3.29
  GU-196              10.264     3.501     0.070
  GU-197              68.207     4.043     0.081  Side_Entry        ON-GRADE      1    13.11    39.72    99.02     0.00     8.94    59.26
  GU-198              70.640     4.546     0.091  Side_Entry_Sag    ON-SAG        1    97.22    99.79     1.96     0.00    68.67     1.97
  GU-199              12.436     3.592     0.072
  CB-82_Incoming      43.621     3.308     0.066  Side_Entry        ON-GRADE      1    10.30    30.77    99.47     0.00     4.49    39.13
  CB-85_Incoming      12.428     1.804     0.036  Side_Entry        ON-GRADE      1    17.16    45.02    99.50     0.00     2.13    10.30
  CB-86_Incoming      44.100     3.287     0.066  Side_Entry        ON-GRADE      1    10.25    30.36    99.49     0.00     4.52    39.58
  CB-89_Incoming      14.851     1.950     0.039  Side_Entry        ON-GRADE      1    15.97    42.26    99.53     0.00     2.37    12.48
  
  
  ********************
  Link Flow Summary
  ********************
  
  -----------------------------------------------------------------------------
                                 Maximum  Time of Max   Maximum    Max/    Max/
                                  |Flow|   Occurrence   |Veloc|    Full    Full
  Link                 Type          LPS  days hr:min     m/sec    Flow   Depth
  -----------------------------------------------------------------------------
  GU-194               CONDUIT     68.97     0  12:15      0.42    0.57    0.81
  GU-195               CONDUIT     68.73     0  12:16      0.34    0.56    0.90
  GU-196               CONDUIT     10.26     0  12:15      0.12    0.09    0.70
  GU-197               CONDUIT     68.21     0  12:15      0.42    0.55    0.81
  GU-198               CONDUIT     70.64     0  12:15      0.34    0.59    0.91
  GU-199               CONDUIT     12.44     0  12:15      0.12    0.11    0.72
  CB-82_Incoming       CONDUIT     43.62     0  12:15      0.40    0.17    0.66
  CB-85_Incoming       CONDUIT     12.43     0  12:15      0.40    0.05    0.36
  CB-86_Incoming       CONDUIT     44.10     0  12:15      0.41    0.17    0.66
  CB-89_Incoming       CONDUIT     14.85     0  12:15      0.41    0.06    0.39
  CO-465               CONDUIT      8.84     0  12:29      0.55    0.15    0.86
  CO-466               CONDUIT     25.56     0  12:30      0.30    0.24    1.00
  CO-467               CONDUIT    164.87     0  12:21      1.42    1.66    0.87
  CO-468               CONDUIT    168.18     0  12:21      1.30    0.97    0.62
  CO-469               CONDUIT      4.49     0  12:15      0.49    0.05    0.51
  CO-470               CONDUIT      4.52     0  12:15      0.52    0.04    0.50
  CO-471               CONDUIT      9.10     0  12:16      0.40    0.10    0.61
  CO-472               CONDUIT      8.94     0  12:15      0.41    0.07    0.59
  CO-473               CONDUIT     68.13     0  12:22      1.49    0.75    0.88
  CO-474               CONDUIT     71.38     0  12:21      1.75    0.58    0.77
  CO-475               CONDUIT      2.13     0  12:15      0.29    0.02    0.55
  CO-476               CONDUIT      2.37     0  12:15      0.37    0.02    0.54
  
  
  ***************************
  Flow Classification Summary
  ***************************
  
  -------------------------------------------------------------------------------------
                      Adjusted    ---------- Fraction of Time in Flow Class ---------- 
                       /Actual         Up    Down  Sub   Sup   Up    Down  Norm  Inlet 
  Conduit               Length    Dry  Dry   Dry   Crit  Crit  Crit  Crit  Ltd   Ctrl  
  -------------------------------------------------------------------------------------
  GU-194                  1.00   0.00  0.00  0.00  1.00  0.00  0.00  0.00  0.64  0.00
  GU-195                  1.00   0.00  0.00  0.00  0.99  0.01  0.00  0.00  0.22  0.00
  GU-196                  1.00   0.00  0.00  0.00  1.00  0.00  0.00  0.00  0.78  0.00
  GU-197                  1.00   0.00  0.00  0.00  1.00  0.00  0.00  0.00  0.78  0.00
  GU-198                  1.00   0.00  0.00  0.00  1.00  0.00  0.00  0.00  0.22  0.00
  GU-199                  1.00   0.00  0.00  0.00  1.00  0.00  0.00  0.00  0.78  0.00
  CB-82_Incoming          1.00   0.00  0.00  0.00  1.00  0.00  0.00  0.00  0.99  0.00
  CB-85_Incoming          1.00   0.00  0.00  0.00  0.89  0.11  0.00  0.00  0.89  0.00
  CB-86_Incoming          1.00   0.00  0.00  0.00  1.00  0.00  0.00  0.00  0.99  0.00
  CB-89_Incoming          1.00   0.00  0.00  0.00  0.98  0.02  0.00  0.00  0.98  0.00
  CO-465                  1.00   0.01  0.00  0.00  0.08  0.00  0.00  0.92  0.04  0.00
  CO-466                  1.00   0.01  0.00  0.00  0.99  0.00  0.00  0.00  0.78  0.00
  CO-467                  1.00   0.01  0.00  0.00  0.00  0.00  0.00  0.99  0.00  0.00
  CO-468                  1.00   0.01  0.00  0.00  0.99  0.00  0.00  0.00  0.00  0.00
  CO-469                  1.00   0.00  0.00  0.00  0.99  0.00  0.00  0.00  0.99  0.00
  CO-470                  1.00   0.00  0.00  0.00  0.99  0.00  0.00  0.00  0.99  0.00
  CO-471                  1.00   0.01  0.00  0.00  0.99  0.00  0.00  0.00  0.99  0.00
  CO-472                  1.00   0.01  0.00  0.00  0.99  0.00  0.00  0.00  0.99  0.00
  CO-473                  1.00   0.01  0.00  0.00  0.99  0.01  0.00  0.00  0.97  0.00
  CO-474                  1.00   0.01  0.00  0.00  0.95  0.04  0.00  0.00  0.99  0.00
  CO-475                  1.00   0.00  0.00  0.00  0.99  0.00  0.00  0.00  0.99  0.00
  CO-476                  1.00   0.00  0.00  0.00  0.99  0.00  0.00  0.00  0.99  0.00
  
  
  *************************
  Conduit Surcharge Summary
  *************************
  
  ----------------------------------------------------------------------------
                                                           Hours        Hours 
                         --------- Hours Full --------   Above Full   Capacity
  Conduit                Both Ends  Upstream  Dnstream   Normal Flow   Limited
  ----------------------------------------------------------------------------
  GU-195                      0.01      0.01      1.03      0.01         0.01
  GU-196                      0.01      0.01      1.03      0.01         0.01
  GU-198                      0.01      0.01      1.03      0.01         0.01
  GU-199                      0.01      0.01      1.03      0.01         0.01
  CO-465                      0.01      0.01      0.17      0.01         0.01
  CO-466                      0.16      0.16      0.66      0.01         0.01
  CO-467                      0.01      0.66      0.01      1.19         0.01
  CO-471                      0.01      0.01      1.02      0.01         0.01
  CO-472                      0.01      0.01      1.02      0.01         0.01
  CO-473                      0.01      0.01      1.89      0.01         0.01
  CO-474                      0.01      0.01      1.89      0.01         0.01
  CO-475                      0.01      0.01      1.30      0.01         0.01
  CO-476                      0.01      0.01      1.30      0.01         0.01
  
  
  ***************************
  Link Pollutant Load Summary
  ***************************
  
  ----------------------------------
                      Pollutants_-_1
  Link                            kg
  ----------------------------------
  GU-194                       0.000
  GU-195                       0.000
  GU-196                       0.000
  GU-197                       0.000
  GU-198                       0.000
  GU-199                       0.000
  CB-82_Incoming               0.000
  CB-85_Incoming               0.000
  CB-86_Incoming               0.000
  CB-89_Incoming               0.000
  CO-465                       0.000
  CO-466                       0.000
  CO-467                       0.000
  CO-468                       0.000
  CO-469                       0.000
  CO-470                       0.000
  CO-471                       0.000
  CO-472                       0.000
  CO-473                       0.000
  CO-474                       0.000
  CO-475                       0.000
  CO-476                       0.000
  

  Analysis begun on:  Sun Mar  8 11:11:29 2026
  Analysis ended on:  Sun Mar  8 11:11:31 2026
  Total elapsed time: 00:00:02