
  EPA STORM WATER MANAGEMENT MODEL - VERSION 5.2 (Build 5.2.4)
  ------------------------------------------------------------

  
  ERROR 209: undefined object Node_1995 at line 146 of [CONDUIT] section:
  SML1995Z0C       Node_1995        Node_1869724     22.52      0.0120     110.85     110.62     0          0

  
  ERROR 209: undefined object Node_2995 at line 200 of [CONDUIT] section:
  SML2995D02       Node_2995        Node_10011062    108.40     0.0090     154.42     140.70     0          0

  
  ERROR 209: undefined object Node_2995 at line 201 of [CONDUIT] section:
  SML2995D14       Node_2995        Node_1002809     222.57     0.0150     76.95      70.87      0          0

  
  ERROR 209: undefined object Node_2995 at line 202 of [CONDUIT] section:
  SML2995D05       Node_2995        Node_1003806     235.50     0.0150     106.97     104.62     0          0

  
  ERROR 209: undefined object Node_2995 at line 203 of [CONDUIT] section:
  SML2995C01       Node_2995        Node_1004982     313.32     0.0150     52.31      50.78      0          0

  
  ERROR 209: undefined object Node_2995 at line 204 of [CONDUIT] section:
  SML2995D06       Node_2995        Node_10061003    95.76      0.0150     107.93     106.97     0          0

  
  ERROR 209: undefined object Node_2995 at line 205 of [CONDUIT] section:
  SML2995C05       Node_2995        Node_10091014    262.00     0.0150     58.24      55.62      0          0

  
  ERROR 209: undefined object Node_2995 at line 206 of [CONDUIT] section:
  SML2995C04       Node_2995        Node_10101014    208.63     0.0150     50.51      49.52      0          0

  
  ERROR 209: undefined object Node_2995 at line 207 of [CONDUIT] section:
  SML2995D12       Node_2995        Node_1011983     137.78     0.0150     80.65      79.27      0          0

  
  ERROR 209: undefined object Node_2995 at line 208 of [CONDUIT] section:
  SML2995D03       Node_2995        Node_10121013    199.25     0.0150     84.60      82.61      0          0

  
  ERROR 209: undefined object Node_2995 at line 209 of [CONDUIT] section:
  SML2995D07       Node_2995        Node_10131058    115.30     0.0240     82.61      81.46      0          0

  
  ERROR 209: undefined object Node_2995 at line 210 of [CONDUIT] section:
  SML2995C06       Node_2995        Node_10141015    194.86     0.0150     49.52      48.63      0          0

  
  ERROR 209: undefined object Node_2995 at line 211 of [CONDUIT] section:
  SML2995C07       Node_2995        Node_10151030    320.01     0.0150     48.63      46.25      0          0

  
  ERROR 209: undefined object Node_2995 at line 212 of [CONDUIT] section:
  SML2995D21       Node_2995        Node_10171022    160.00     0.0150     72.82      72.02      0          0

  
  ERROR 209: undefined object Node_2995 at line 213 of [CONDUIT] section:
  SML2995D18       Node_2995        Node_10181017    113.68     0.0120     87.03      72.92      0          0

  
  ERROR 209: undefined object Node_2995 at line 214 of [CONDUIT] section:
  SML2995D16       Node_2995        Node_1019984     134.36     0.0160     95.47      91.00      0          0

  
  ERROR 209: undefined object Node_2995 at line 215 of [CONDUIT] section:
  SML2995E04       Node_2995        Node_1020985     239.42     0.0240     135.17     132.78     0          0

  
  ERROR 209: undefined object Node_2995 at line 216 of [CONDUIT] section:
  SML2995E01       Node_2995        Node_10211001    245.87     0.0240     156.87     154.52     0          0

  
  ERROR 209: undefined object Node_2995 at line 217 of [CONDUIT] section:
  SML2995C03       Node_2995        Node_10221026    305.20     0.0150     72.02      61.45      0          0

  
  ERROR 209: undefined object Node_2995 at line 218 of [CONDUIT] section:
  SML2995F08       Node_2995        Node_1025987     169.75     0.0240     55.30      49.30      0          0

  
  ERROR 209: undefined object Node_2995 at line 219 of [CONDUIT] section:
  SML2995F01       Node_2995        Node_10261025    172.89     0.0240     61.45      55.30      0          0

  
  ERROR 209: undefined object Node_2995 at line 220 of [CONDUIT] section:
  SML2995E09       Node_2995        Node_10281032    213.30     0.0240     82.62      81.42      0          0

  
  ERROR 209: undefined object Node_2995 at line 221 of [CONDUIT] section:
  SML2995E13       Node_2995        Node_10291027    474.34     0.0240     63.62      61.74      0          0

  
  ERROR 209: undefined object Node_2995 at line 222 of [CONDUIT] section:
  SML2995F05       Node_2995        Node_10301036    493.60     0.0150     46.25      44.61      0          0

  
  ERROR 209: undefined object Node_2995 at line 223 of [CONDUIT] section:
  SML2995E10       Node_2995        Node_10321037    310.38     0.0240     81.42      79.67      0          0

  
  ERROR 209: undefined object Node_2995 at line 224 of [CONDUIT] section:
  SML2995F04       Node_2995        Node_10331036    206.88     0.0150     48.23      44.61      0          0

  
  ERROR 209: undefined object Node_2995 at line 225 of [CONDUIT] section:
  SML2995F02       Node_2995        Node_10341033    343.75     0.0150     50.77      48.33      0          0

  
  ERROR 209: undefined object Node_2995 at line 226 of [CONDUIT] section:
  SML2995F06       Node_2995        Node_10361050    495.03     0.0150     44.61      42.97      0          0

  
  ERROR 209: undefined object Node_2995 at line 227 of [CONDUIT] section:
  SML2995E11       Node_2995        Node_10371043    480.50     0.0150     79.61      75.10      0          0

  
  ERROR 209: undefined object Node_2995 at line 228 of [CONDUIT] section:
  SML2995L03       Node_2995        Node_10381033    438.38     0.0150     50.88      48.69      0          0

  
  ERROR 209: undefined object Node_2995 at line 229 of [CONDUIT] section:
  SML2995L02       Node_2995        Node_10391034    482.70     0.0150     51.40      50.87      0          0

  
  ERROR 209: undefined object Node_2995 at line 230 of [CONDUIT] section:
  SML2995M21       Node_2995        Node_10401029    484.51     0.0240     66.47      63.72      0          0

  
  ERROR 209: undefined object Node_2995 at line 231 of [CONDUIT] section:
  SML2995L06       Node_2995        Node_10421039    212.76     0.0150     52.40      51.50      0          0

  
  ERROR 209: undefined object Node_2995 at line 232 of [CONDUIT] section:
  SML2995M15       Node_2995        Node_10431045    185.56     0.0150     75.10      67.50      0          0

  
  ERROR 209: undefined object Node_2995 at line 233 of [CONDUIT] section:
  SML2995M18       Node_2995        Node_10451040    186.95     0.0150     67.40      66.47      0          0

  
  ERROR 209: undefined object Node_2995 at line 234 of [CONDUIT] section:
  SML2995M19       Node_2995        Node_10471045    474.30     0.0240     68.12      67.40      0          0

  
  ERROR 209: undefined object Node_2995 at line 235 of [CONDUIT] section:
  SML2995D10       Node_2995        Node_10581011    80.70      0.0240     81.46      80.65      0          0

  
  ERROR 209: undefined object Node_2995 at line 236 of [CONDUIT] section:
  SML2995D25       Node_2995        Node_1062985     230.53     0.0090     140.70     132.88     0          0

  
  ERROR 209: undefined object Node_2995 at line 238 of [CONDUIT] section:
  SML2995D23       Node_2995        Node_10051830    187.83     0.0140     95.00      94.10      0          0

  
  ERROR 209: undefined object Node_2995 at line 239 of [CONDUIT] section:
  SML2995D01       Node_2995        Node_1830802     285.18     0.0140     94.10      92.69      0          0

  
  ERROR 209: undefined object Node_2095 at line 241 of [CONDUIT] section:
  SML2095W0A       Node_2095        Node_1833749     191.56     0.0140     65.81      63.48      0          0

  
  ERROR 209: undefined object Node_2095 at line 244 of [CONDUIT] section:
  SML2095X1B       Node_2095        Node_1837810     47.74      0.0140     53.31      53.11      0          0

  
  ERROR 209: undefined object Node_2995 at line 245 of [CONDUIT] section:
  SML2995D0A       Node_2995        Node_1842808     282.82     0.0140     58.31      55.48      0          0

  
  ERROR 209: undefined object Node_2995 at line 246 of [CONDUIT] section:
  SML2995D20       Node_2995        Node_10081010    210.40     0.0140     75.25      51.96      0          0

  
  ERROR 209: undefined object Node_2995 at line 247 of [CONDUIT] section:
  SML2995C7B       Node_2995        Node_1843987     308.53     0.0140     50.80      49.30      0          0

  
  ERROR 209: undefined object Node_2995 at line 248 of [CONDUIT] section:
  SML2995D0B       Node_2995        Node_18451027    304.07     0.0140     71.60      65.52      0          0

  
  ERROR 209: undefined object Node_2095 at line 249 of [CONDUIT] section:
  SML2095E12       Node_2095        Node_10271026    169.00     0.0140     61.45      61.45      0          0

  
  ERROR 209: undefined object Node_2995 at line 251 of [CONDUIT] section:
  SML2995D17       Node_2995        Node_10231028    217.70     0.0240     83.80      82.72      0          0


  Analysis begun on:  Sat Mar  7 21:51:28 2026
  Analysis ended on:  Sat Mar  7 21:51:28 2026
  Total elapsed time: < 1 sec