
  EPA STORM WATER MANAGEMENT MODEL - VERSION 5.2 (Build 5.2.4)
  ------------------------------------------------------------

  
  ERROR 209: undefined object 4.00 at line 41 of [XSECT] section:
  20360            IRREGULAR    4.00       0          0          0          1

  
  ERROR 209: undefined object 39.00 at line 42 of [XSECT] section:
  20350            IRREGULAR    39.00      0          0          0          1

  
  ERROR 209: undefined object 39.00 at line 43 of [XSECT] section:
  20340            IRREGULAR    39.00      0          0          0          1


  Analysis begun on:  Sat Mar  7 21:51:25 2026
  Analysis ended on:  Sat Mar  7 21:51:25 2026
  Total elapsed time: < 1 sec