
  EPA STORM WATER MANAGEMENT MODEL - VERSION 5.2 (Build 5.2.4)
  ------------------------------------------------------------

  
  ERROR 209: undefined object ? at line 36 of [CONDUIT] section:
  203              ?                ?                10000.00   0.0140     0          0          0          0

  
  ERROR 209: undefined object ? at line 37 of [CONDUIT] section:
  207              ?                ?                19000.00   0.0140     0          0          0          0

  
  ERROR 209: undefined object ? at line 38 of [CONDUIT] section:
  209              ?                ?                1000.00    0.0140     0          0          0          0

  
  ERROR 209: undefined object p2 at line 43 of [PUMP] section:
  p1               p2               p3               *          ON       0          0         


  Analysis begun on:  Sat Mar  7 21:51:28 2026
  Analysis ended on:  Sat Mar  7 21:51:28 2026
  Total elapsed time: < 1 sec