
  EPA STORM WATER MANAGEMENT MODEL - VERSION 5.2 (Build 5.2.4)
  ------------------------------------------------------------

  
  ERROR 209: undefined object 0 at line 50 of [XSECT] section:
  c1               IRREGULAR    0          0          0          0          1

  
  ERROR 209: undefined object 0 at line 51 of [XSECT] section:
  c2               IRREGULAR    0          0          0          0          1

  
  ERROR 209: undefined object 0 at line 52 of [XSECT] section:
  c3               IRREGULAR    0          0          0          0          1

  
  ERROR 209: undefined object 0 at line 53 of [XSECT] section:
  c4               IRREGULAR    0          0          0          0          1


  Analysis begun on:  Sat Mar  7 21:51:33 2026
  Analysis ended on:  Sat Mar  7 21:51:33 2026
  Total elapsed time: < 1 sec