
  EPA STORM WATER MANAGEMENT MODEL - VERSION 5.2 (Build 5.2.4)
  ------------------------------------------------------------

  
  ERROR 209: undefined object 212.2 at line 44 of [CONDUIT] section:
  212.1            212.2            212.3            100.00     0.0140     75.00      75.00      0          0

  
  ERROR 209: undefined object ? at line 45 of [CONDUIT] section:
  214              ?                ?                100.00     0.0140     90.00      75.00      0          0

  
  ERROR 209: undefined object ? at line 46 of [CONDUIT] section:
  CHME216          ?                ?                24.00      0.0140     75.00      85.00      0          0


  Analysis begun on:  Sat Mar  7 21:51:32 2026
  Analysis ended on:  Sat Mar  7 21:51:32 2026
  Total elapsed time: < 1 sec