
  EPA STORM WATER MANAGEMENT MODEL - VERSION 5.2 (Build 5.2.4)
  ------------------------------------------------------------

  
  ERROR 209: undefined object 15.00 at line 53 of [XSECT] section:
  river            IRREGULAR    15.00      0          0          0          1

  
  ERROR 211: invalid number  at line 54 of [XSECT] section:
  chan1            POWER        10.00      16.00      0          0          1


  Analysis begun on:  Sat Mar  7 21:51:32 2026
  Analysis ended on:  Sat Mar  7 21:51:32 2026
  Total elapsed time: < 1 sec