
  EPA STORM WATER MANAGEMENT MODEL - VERSION 5.2 (Build 5.2.4)
  ------------------------------------------------------------

  
  ERROR 209: undefined object ? at line 467 of [CONDUIT] section:
  760              ?                ?                400.00     0.0140     709.40     707.80     0          0

  
  ERROR 209: undefined object 4.00 at line 477 of [XSECT] section:
  20360            IRREGULAR    4.00       0          0          0          1

  
  ERROR 209: undefined object 39.00 at line 478 of [XSECT] section:
  20350            IRREGULAR    39.00      0          0          0          1

  
  ERROR 209: undefined object 39.00 at line 479 of [XSECT] section:
  20340            IRREGULAR    39.00      0          0          0          1

  
  ERROR 209: undefined object 39.00 at line 480 of [XSECT] section:
  20330            IRREGULAR    39.00      0          0          0          1

  
  ERROR 209: undefined object 39.00 at line 482 of [XSECT] section:
  20310            IRREGULAR    39.00      0          0          0          1

  
  ERROR 209: undefined object 39.00 at line 484 of [XSECT] section:
  20290            IRREGULAR    39.00      0          0          0          1

  
  ERROR 209: undefined object 37.40 at line 485 of [XSECT] section:
  20280            IRREGULAR    37.40      0          0          0          1

  
  ERROR 209: undefined object 37.40 at line 486 of [XSECT] section:
  20270            IRREGULAR    37.40      0          0          0          1

  
  ERROR 209: undefined object 37.40 at line 487 of [XSECT] section:
  20260            IRREGULAR    37.40      0          0          0          1

  
  ERROR 209: undefined object 37.40 at line 488 of [XSECT] section:
  20250            IRREGULAR    37.40      0          0          0          1

  
  ERROR 209: undefined object 37.40 at line 490 of [XSECT] section:
  20230            IRREGULAR    37.40      0          0          0          1

  
  ERROR 209: undefined object 37.40 at line 491 of [XSECT] section:
  20220            IRREGULAR    37.40      0          0          0          1

  
  ERROR 209: undefined object 18.40 at line 492 of [XSECT] section:
  20210            IRREGULAR    18.40      0          0          0          1

  
  ERROR 209: undefined object 18.40 at line 494 of [XSECT] section:
  20190            IRREGULAR    18.40      0          0          0          1

  
  ERROR 209: undefined object 18.40 at line 495 of [XSECT] section:
  20180            IRREGULAR    18.40      0          0          0          1

  
  ERROR 209: undefined object 18.40 at line 496 of [XSECT] section:
  20170            IRREGULAR    18.40      0          0          0          1

  
  ERROR 209: undefined object 11.91 at line 497 of [XSECT] section:
  20150            IRREGULAR    11.91      0          0          0          1

  
  ERROR 209: undefined object 11.91 at line 498 of [XSECT] section:
  20140            IRREGULAR    11.91      0          0          0          1

  
  ERROR 209: undefined object 11.91 at line 500 of [XSECT] section:
  20110            IRREGULAR    11.91      0          0          0          1

  
  ERROR 209: undefined object 11.91 at line 502 of [XSECT] section:
  20070            IRREGULAR    11.91      0          0          0          1

  
  ERROR 209: undefined object 11.91 at line 503 of [XSECT] section:
  20060            IRREGULAR    11.91      0          0          0          1

  
  ERROR 209: undefined object 11.02 at line 504 of [XSECT] section:
  20050            IRREGULAR    11.02      0          0          0          1

  
  ERROR 209: undefined object 11.02 at line 506 of [XSECT] section:
  20010            IRREGULAR    11.02      0          0          0          1

  
  ERROR 209: undefined object 4.00 at line 508 of [XSECT] section:
  21040            IRREGULAR    4.00       0          0          0          1

  
  ERROR 209: undefined object 4.00 at line 509 of [XSECT] section:
  21020            IRREGULAR    4.00       0          0          0          1

  
  ERROR 209: undefined object 32.50 at line 510 of [XSECT] section:
  21010            IRREGULAR    32.50      0          0          0          1

  
  ERROR 209: undefined object 4.00 at line 511 of [XSECT] section:
  21030            IRREGULAR    4.00       0          0          0          1

  
  ERROR 209: undefined object 32.50 at line 512 of [XSECT] section:
  22060            IRREGULAR    32.50      0          0          0          1

  
  ERROR 209: undefined object 32.50 at line 513 of [XSECT] section:
  22050            IRREGULAR    32.50      0          0          0          1

  
  ERROR 209: undefined object 32.50 at line 514 of [XSECT] section:
  22040            IRREGULAR    32.50      0          0          0          1

  
  ERROR 209: undefined object 32.50 at line 516 of [XSECT] section:
  22020            IRREGULAR    32.50      0          0          0          1

  
  ERROR 209: undefined object 32.50 at line 517 of [XSECT] section:
  22010            IRREGULAR    32.50      0          0          0          1

  
  ERROR 209: undefined object 27.40 at line 518 of [XSECT] section:
  23160            IRREGULAR    27.40      0          0          0          1

  
  ERROR 209: undefined object 27.40 at line 520 of [XSECT] section:
  23140            IRREGULAR    27.40      0          0          0          1

  
  ERROR 209: undefined object 27.40 at line 521 of [XSECT] section:
  23130            IRREGULAR    27.40      0          0          0          1

  
  ERROR 209: undefined object 27.40 at line 522 of [XSECT] section:
  23120            IRREGULAR    27.40      0          0          0          1

  
  ERROR 209: undefined object 27.40 at line 523 of [XSECT] section:
  23110            IRREGULAR    27.40      0          0          0          1

  
  ERROR 209: undefined object 27.40 at line 524 of [XSECT] section:
  23100            IRREGULAR    27.40      0          0          0          1

  
  ERROR 209: undefined object 47.20 at line 525 of [XSECT] section:
  23030            IRREGULAR    47.20      0          0          0          1

  
  ERROR 209: undefined object 47.20 at line 527 of [XSECT] section:
  23010            IRREGULAR    47.20      0          0          0          1

  
  ERROR 209: undefined object 47.20 at line 528 of [XSECT] section:
  23060            IRREGULAR    47.20      0          0          0          1

  
  ERROR 209: undefined object 47.20 at line 529 of [XSECT] section:
  23050            IRREGULAR    47.20      0          0          0          1

  
  ERROR 209: undefined object 47.20 at line 530 of [XSECT] section:
  23040            IRREGULAR    47.20      0          0          0          1

  
  ERROR 209: undefined object 27.40 at line 531 of [XSECT] section:
  23070            IRREGULAR    27.40      0          0          0          1

  
  ERROR 209: undefined object 24.40 at line 537 of [XSECT] section:
  24020            IRREGULAR    24.40      0          0          0          1

  
  ERROR 209: undefined object 24.40 at line 538 of [XSECT] section:
  24010            IRREGULAR    24.40      0          0          0          1

  
  ERROR 209: undefined object 27.40 at line 540 of [XSECT] section:
  23180            IRREGULAR    27.40      0          0          0          1

  
  ERROR 209: undefined object 27.40 at line 541 of [XSECT] section:
  23170            IRREGULAR    27.40      0          0          0          1

  
  ERROR 209: undefined object 27.40 at line 542 of [XSECT] section:
  23200            IRREGULAR    27.40      0          0          0          1

  
  ERROR 209: undefined object 27.40 at line 543 of [XSECT] section:
  23190            IRREGULAR    27.40      0          0          0          1

  
  ERROR 209: undefined object 11.02 at line 544 of [XSECT] section:
  10720            IRREGULAR    11.02      0          0          0          1

  
  ERROR 209: undefined object 11.02 at line 545 of [XSECT] section:
  10710            IRREGULAR    11.02      0          0          0          1

  
  ERROR 209: undefined object 11.02 at line 546 of [XSECT] section:
  10700            IRREGULAR    11.02      0          0          0          1

  
  ERROR 209: undefined object 11.02 at line 547 of [XSECT] section:
  10690            IRREGULAR    11.02      0          0          0          1

  
  ERROR 209: undefined object 12.00 at line 548 of [XSECT] section:
  10670            IRREGULAR    12.00      0          0          0          1

  
  ERROR 209: undefined object 12.00 at line 550 of [XSECT] section:
  10630            IRREGULAR    12.00      0          0          0          1

  
  ERROR 209: undefined object 12.00 at line 551 of [XSECT] section:
  10620            IRREGULAR    12.00      0          0          0          1

  
  ERROR 209: undefined object 12.00 at line 552 of [XSECT] section:
  10610            IRREGULAR    12.00      0          0          0          1

  
  ERROR 209: undefined object 12.00 at line 553 of [XSECT] section:
  10600            IRREGULAR    12.00      0          0          0          1

  
  ERROR 209: undefined object 12.00 at line 555 of [XSECT] section:
  10560            IRREGULAR    12.00      0          0          0          1

  
  ERROR 209: undefined object 12.00 at line 557 of [XSECT] section:
  10520            IRREGULAR    12.00      0          0          0          1

  
  ERROR 209: undefined object 12.00 at line 558 of [XSECT] section:
  10510            IRREGULAR    12.00      0          0          0          1

  
  ERROR 209: undefined object 12.00 at line 559 of [XSECT] section:
  10500            IRREGULAR    12.00      0          0          0          1

  
  ERROR 209: undefined object 12.00 at line 560 of [XSECT] section:
  10490            IRREGULAR    12.00      0          0          0          1

  
  ERROR 209: undefined object 12.00 at line 561 of [XSECT] section:
  10480            IRREGULAR    12.00      0          0          0          1

  
  ERROR 209: undefined object 14.50 at line 562 of [XSECT] section:
  10470            IRREGULAR    14.50      0          0          0          1

  
  ERROR 209: undefined object 14.50 at line 563 of [XSECT] section:
  10460            IRREGULAR    14.50      0          0          0          1

  
  ERROR 209: undefined object 14.50 at line 565 of [XSECT] section:
  10420            IRREGULAR    14.50      0          0          0          1

  
  ERROR 209: undefined object 15.80 at line 566 of [XSECT] section:
  10410            IRREGULAR    15.80      0          0          0          1

  
  ERROR 209: undefined object 22.90 at line 568 of [XSECT] section:
  10380            IRREGULAR    22.90      0          0          0          1

  
  ERROR 209: undefined object 22.90 at line 569 of [XSECT] section:
  10370            IRREGULAR    22.90      0          0          0          1

  
  ERROR 209: undefined object 12.00 at line 571 of [XSECT] section:
  10330            IRREGULAR    12.00      0          0          0          1

  
  ERROR 209: undefined object 6.20 at line 572 of [XSECT] section:
  10320            IRREGULAR    6.20       0          0          0          1

  
  ERROR 209: undefined object 6.20 at line 573 of [XSECT] section:
  10300            IRREGULAR    6.20       0          0          0          1

  
  ERROR 209: undefined object 6.20 at line 575 of [XSECT] section:
  10260            IRREGULAR    6.20       0          0          0          1

  
  ERROR 209: undefined object 6.20 at line 576 of [XSECT] section:
  10250            IRREGULAR    6.20       0          0          0          1

  
  ERROR 209: undefined object 6.20 at line 577 of [XSECT] section:
  10240            IRREGULAR    6.20       0          0          0          1

  
  ERROR 209: undefined object 6.20 at line 578 of [XSECT] section:
  10230            IRREGULAR    6.20       0          0          0          1

  
  ERROR 209: undefined object 6.20 at line 579 of [XSECT] section:
  10220            IRREGULAR    6.20       0          0          0          1

  
  ERROR 209: undefined object 7.73 at line 580 of [XSECT] section:
  10200            IRREGULAR    7.73       0          0          0          1

  
  ERROR 209: undefined object 10.23 at line 582 of [XSECT] section:
  10180            IRREGULAR    10.23      0          0          0          1

  
  ERROR 209: undefined object 6.56 at line 583 of [XSECT] section:
  10170            IRREGULAR    6.56       0          0          0          1

  
  ERROR 209: undefined object 8.60 at line 584 of [XSECT] section:
  10160            IRREGULAR    8.60       0          0          0          1

  
  ERROR 209: undefined object 6.56 at line 585 of [XSECT] section:
  10140            IRREGULAR    6.56       0          0          0          1

  
  ERROR 209: undefined object 11.73 at line 586 of [XSECT] section:
  10130            IRREGULAR    11.73      0          0          0          1

  
  ERROR 209: undefined object 8.60 at line 587 of [XSECT] section:
  10110            IRREGULAR    8.60       0          0          0          1

  
  ERROR 209: undefined object 12.85 at line 588 of [XSECT] section:
  10070            IRREGULAR    12.85      0          0          0          1

  
  ERROR 211: invalid number 0 at line 589 of [XSECT] section:
  10030            CUSTOM       0          0          0          0          1

  
  ERROR 209: undefined object 24.00 at line 590 of [XSECT] section:
  10010            IRREGULAR    24.00      0          0          0          1

  
  ERROR 209: undefined object 20.00 at line 591 of [XSECT] section:
  10050            IRREGULAR    20.00      0          0          0          1

  
  ERROR 209: undefined object 12.85 at line 593 of [XSECT] section:
  10090            IRREGULAR    12.85      0          0          0          1

  
  ERROR 209: undefined object 11.02 at line 594 of [XSECT] section:
  10680            IRREGULAR    11.02      0          0          0          1

  
  ERROR 209: undefined object 36.10 at line 595 of [XSECT] section:
  41070            IRREGULAR    36.10      0          0          0          1

  
  ERROR 209: undefined object 36.10 at line 598 of [XSECT] section:
  41040            IRREGULAR    36.10      0          0          0          1

  
  ERROR 209: undefined object 36.10 at line 599 of [XSECT] section:
  41030            IRREGULAR    36.10      0          0          0          1

  
  ERROR 209: undefined object 36.10 at line 601 of [XSECT] section:
  41010            IRREGULAR    36.10      0          0          0          1

  
  ERROR 209: undefined object 24.40 at line 608 of [XSECT] section:
  45130            IRREGULAR    24.40      0          0          0          1

  
  ERROR 209: undefined object 24.40 at line 609 of [XSECT] section:
  45120            IRREGULAR    24.40      0          0          0          1

  
  ERROR 209: undefined object 24.40 at line 610 of [XSECT] section:
  45110            IRREGULAR    24.40      0          0          0          1

  
  Maximum error count exceeded.

  Analysis begun on:  Sat Mar  7 21:51:26 2026
  Analysis ended on:  Sat Mar  7 21:51:26 2026
  Total elapsed time: < 1 sec