
  EPA STORM WATER MANAGEMENT MODEL - VERSION 5.2 (Build 5.2.4)
  ------------------------------------------------------------

  
  ERROR 209: undefined object ? at line 312 of [CONDUIT] section:
  Link_702         ?                ?                24.60      0.0140     99.10      99.01      0          0

  
  ERROR 209: undefined object ? at line 313 of [CONDUIT] section:
  Link_710         ?                ?                7.20       0.0140     98.71      98.12      0          0

  
  ERROR 209: undefined object ? at line 314 of [CONDUIT] section:
  Link_711         ?                ?                58.80      0.0140     99.80      99.19      0          0

  
  ERROR 209: undefined object ? at line 315 of [CONDUIT] section:
  Link_712         ?                ?                55.50      0.0140     102.41     101.71     0          0

  
  ERROR 209: undefined object ? at line 316 of [CONDUIT] section:
  Link_713         ?                ?                85.50      0.0140     102.77     102.54     0          0

  
  ERROR 209: undefined object ? at line 317 of [CONDUIT] section:
  Link_714         ?                ?                60.50      0.0140     102.92     102.80     0          0

  
  ERROR 209: undefined object ? at line 318 of [CONDUIT] section:
  Link_715         ?                ?                65.00      0.0140     103.11     102.93     0          0

  
  ERROR 209: undefined object ? at line 319 of [CONDUIT] section:
  Link_716         ?                ?                59.50      0.0140     103.84     103.49     0          0

  
  ERROR 209: undefined object ? at line 320 of [CONDUIT] section:
  Link_717         ?                ?                24.20      0.0140     103.97     103.88     0          0

  
  ERROR 209: undefined object ? at line 321 of [CONDUIT] section:
  Link_718         ?                ?                33.50      0.0140     104.17     104.00     0          0

  
  ERROR 209: undefined object ? at line 322 of [CONDUIT] section:
  Link_719         ?                ?                57.00      0.0140     104.59     104.20     0          0

  
  ERROR 209: undefined object ? at line 323 of [CONDUIT] section:
  Link_720         ?                ?                54.00      0.0140     104.89     104.71     0          0

  
  ERROR 209: undefined object ? at line 324 of [CONDUIT] section:
  Link_721         ?                ?                63.00      0.0140     105.13     104.89     0          0

  
  ERROR 209: undefined object ? at line 325 of [CONDUIT] section:
  Link_722         ?                ?                35.50      0.0140     105.30     105.15     0          0

  
  ERROR 209: undefined object ? at line 326 of [CONDUIT] section:
  Link_723         ?                ?                71.20      0.0140     105.67     105.41     0          0

  
  ERROR 209: undefined object ? at line 327 of [CONDUIT] section:
  Link_724         ?                ?                80.00      0.0140     107.65     106.92     0          0

  
  ERROR 209: undefined object ? at line 328 of [CONDUIT] section:
  Link_725         ?                ?                53.50      0.0140     107.86     107.66     0          0

  
  ERROR 209: undefined object ? at line 329 of [CONDUIT] section:
  Link_726         ?                ?                9.10       0.0140     107.98     107.93     0          0

  
  ERROR 209: undefined object ? at line 330 of [CONDUIT] section:
  Link_727         ?                ?                32.30      0.0140     108.11     108.00     0          0

  
  ERROR 209: undefined object ? at line 404 of [CONDUIT] section:
  laa.1            ?                Node_1303384     29.80      0.0140     102.32     102.19     0          0

  
  ERROR 209: undefined object ? at line 405 of [CONDUIT] section:
  laa.2            ?                Node_13041303    104.40     0.0140     102.77     102.32     0          0

  
  ERROR 209: undefined object ? at line 406 of [CONDUIT] section:
  laa.3            ?                Node_13051304    113.10     0.0140     103.47     102.79     0          0

  
  ERROR 209: undefined object ? at line 407 of [CONDUIT] section:
  laa.4            ?                Node_13061305    103.90     0.0140     103.96     103.48     0          0

  
  ERROR 209: undefined object ? at line 409 of [CONDUIT] section:
  RMN2             ?                Node_13711414    131.00     0.0140     100.18     104.53     0          0

  
  ERROR 209: undefined object ? at line 410 of [CONDUIT] section:
  RMG7             ?                Node_1385528     516.00     0.0140     109.30     124.43     0          0

  
  ERROR 209: undefined object ? at line 412 of [CONDUIT] section:
  RMG9             ?                Node_1384709     25.00      0.0140     97.00      98.12      0          0

  
  ERROR 209: undefined object ? at line 413 of [CONDUIT] section:
  RMN7             ?                Node_1388398     500.00     0.0140     101.80     101.95     0          0

  
  ERROR 209: undefined object ? at line 414 of [CONDUIT] section:
  cb.4             ?                Node_14141413    60.90      0.0140     104.53     103.97     0          0

  
  ERROR 209: undefined object ? at line 415 of [CONDUIT] section:
  cb.3             ?                Node_14131412    116.80     0.0140     103.97     103.72     0          0

  
  ERROR 209: undefined object ? at line 416 of [CONDUIT] section:
  cb.2             ?                Node_14121411    25.00      0.0140     103.72     103.60     0          0

  
  ERROR 209: undefined object ? at line 417 of [CONDUIT] section:
  cb.1             ?                Node_1411402     110.60     0.0140     103.60     103.24     0          0

  
  ERROR 209: undefined object ? at line 418 of [CONDUIT] section:
  RMWYOM           ?                Node_13871420    1100.00    0.0140     101.80     109.73     0          0

  
  ERROR 209: undefined object ? at line 419 of [CONDUIT] section:
  RMG8             ?                Node_1386709     1383.00    0.0140     101.51     98.12      0          0

  
  ERROR 209: undefined object ? at line 420 of [CONDUIT] section:
  RMWG15           ?                Node_1382545     20.00      0.0140     101.54     101.65     0          0

  
  ERROR 209: undefined object ? at line 426 of [PUMP] section:
  PUMPN3           ?                Node_13641374    PC_PUMPN3  ON       98.85      98.16     

  
  ERROR 209: undefined object ? at line 427 of [PUMP] section:
  RMN3             ?                Node_1374358     PC_RMN3    ON       98.16      98.85     

  
  ERROR 209: undefined object Node_1191 at line 430 of [PUMP] section:
  PUMPWG15         Node_1191        Node_13651382    PC_PUMPWG15 ON       98.43      98.01     

  
  ERROR 209: undefined object ? at line 431 of [PUMP] section:
  PUMPG8           ?                Node_13571386    PC_PUMPG8  ON       100.00     99.18     

  
  ERROR 209: undefined object PUMPB at line 433 of [PUMP] section:
  PUMPA            PUMPB            PUMPC            PC_PUMPA   ON       97.10      95.80     


  Analysis begun on:  Sat Mar  7 21:51:33 2026
  Analysis ended on:  Sat Mar  7 21:51:33 2026
  Total elapsed time: < 1 sec