
  EPA STORM WATER MANAGEMENT MODEL - VERSION 5.2 (Build 5.2.4)
  ------------------------------------------------------------

  
  ERROR 209: undefined object ? at line 54 of [CONDUIT] section:
  549              ?                ?                313.00     0.0140     717.03     715.58     0          0

  
  ERROR 209: undefined object ? at line 55 of [CONDUIT] section:
  560              ?                ?                255.00     0.0140     711.18     709.66     0          0

  
  ERROR 209: undefined object ? at line 56 of [CONDUIT] section:
  563              ?                ?                215.00     0.0140     712.92     712.06     0          0

  
  ERROR 209: undefined object ? at line 57 of [CONDUIT] section:
  564              ?                ?                220.00     0.0140     712.06     711.18     0          0

  
  ERROR 209: undefined object ? at line 58 of [CONDUIT] section:
  566              ?                ?                210.00     0.0140     717.85     717.03     0          0

  
  ERROR 209: undefined object ? at line 59 of [CONDUIT] section:
  1031             ?                ?                40.00      0.0140     713.73     713.62     0          0

  
  ERROR 209: undefined object ? at line 60 of [CONDUIT] section:
  1032             ?                ?                150.00     0.0140     713.62     712.92     0          0

  
  ERROR 209: undefined object ? at line 61 of [CONDUIT] section:
  1587             ?                ?                263.00     0.0140     716.34     715.58     0          0

  
  ERROR 209: undefined object ? at line 63 of [CONDUIT] section:
  1650             ?                ?                200.00     0.0140     715.35     714.54     0          0

  
  ERROR 209: undefined object ? at line 64 of [CONDUIT] section:
  1651             ?                ?                200.00     0.0140     714.54     713.73     0          0

  
  ERROR 209: undefined object ? at line 65 of [CONDUIT] section:
  1653             ?                ?                68.50      0.0140     715.74     715.36     0          0

  
  ERROR 209: undefined object ? at line 66 of [CONDUIT] section:
  1654             ?                ?                68.50      0.0140     715.36     714.98     0          0

  
  ERROR 209: undefined object ? at line 67 of [CONDUIT] section:
  1656             ?                ?                160.00     0.0140     715.58     714.77     0          0

  
  ERROR 209: undefined object ? at line 68 of [CONDUIT] section:
  1657             ?                ?                160.00     0.0140     714.77     713.96     0          0

  
  ERROR 209: undefined object ? at line 69 of [CONDUIT] section:
  1660             ?                ?                128.50     0.0140     717.52     717.08     0          0

  
  ERROR 209: undefined object ? at line 70 of [CONDUIT] section:
  1662             ?                ?                64.25      0.0140     718.01     717.76     0          0

  
  ERROR 209: undefined object ? at line 71 of [CONDUIT] section:
  1663             ?                ?                64.25      0.0140     717.76     717.52     0          0

  
  ERROR 209: undefined object ? at line 72 of [CONDUIT] section:
  1665             ?                ?                62.50      0.0140     718.07     717.96     0          0

  
  ERROR 209: undefined object ? at line 73 of [CONDUIT] section:
  1666             ?                ?                62.50      0.0140     717.96     717.85     0          0

  
  ERROR 209: undefined object ? at line 74 of [CONDUIT] section:
  1668             ?                ?                105.50     0.0140     713.96     713.79     0          0

  
  ERROR 209: undefined object ? at line 75 of [CONDUIT] section:
  1669             ?                ?                105.50     0.0140     713.79     713.62     0          0


  Analysis begun on:  Sat Mar  7 21:51:21 2026
  Analysis ended on:  Sat Mar  7 21:51:21 2026
  Total elapsed time: < 1 sec