
  EPA STORM WATER MANAGEMENT MODEL - VERSION 5.2 (Build 5.2.4)
  ------------------------------------------------------------

  
  ERROR 209: undefined object Link2 at line 46 of [CONDUIT] section:
  Link1            Link2            Link3            1000.00    0.0200     179.80     179.70     0          0

  
  ERROR 211: invalid number  at line 57 of [XSECT] section:
  Chan2            POWER        10.00      20.00      0          0          1

  
  ERROR 211: invalid number  at line 58 of [XSECT] section:
  Chan3            POWER        10.00      20.00      0          0          1

  
  ERROR 211: invalid number  at line 59 of [XSECT] section:
  Chan4            POWER        10.00      20.00      0          0          1

  
  ERROR 211: invalid number  at line 60 of [XSECT] section:
  Chan5            POWER        10.00      20.00      0          0          1

  
  ERROR 211: invalid number  at line 61 of [XSECT] section:
  Chan6            POWER        10.00      20.00      0          0          1

  
  ERROR 211: invalid number  at line 65 of [XSECT] section:
  Chan1            RECT_OPEN    0          0          0          0          


  Analysis begun on:  Sat Mar  7 21:51:31 2026
  Analysis ended on:  Sat Mar  7 21:51:31 2026
  Total elapsed time: < 1 sec