
  EPA STORM WATER MANAGEMENT MODEL - VERSION 5.2 (Build 5.2.4)
  ------------------------------------------------------------

  
  ERROR 207: duplicate ID name 0 at line 28 of [JUNC] section:
  0                110.00     0          0          0          0

  
  ERROR 207: duplicate ID name 0 at line 33 of [STORAGE] section:
  0                110.00     0          0          FUNCTIONAL 0 0          0

  
  ERROR 207: duplicate ID name 201 at line 39 of [CONDUIT] section:
  201              0                0                100.00     0.0140     100.00     99.90      0          0


  Analysis begun on:  Sat Mar  7 21:51:28 2026
  Analysis ended on:  Sat Mar  7 21:51:28 2026
  Total elapsed time: < 1 sec