
  EPA STORM WATER MANAGEMENT MODEL - VERSION 5.2 (Build 5.2.4)
  ------------------------------------------------------------

  
  ERROR 209: undefined object Node_135 at line 947 of [CONDUIT] section:
  d135ic           Node_135         Node_13931395    1237.00    0.0400     1046.00    1024.00    0          0

  
  ERROR 209: undefined object Node_79 at line 948 of [CONDUIT] section:
  d79ic            Node_79          Node_13941398    1770.00    0.0400     1046.00    1016.53    0          0

  
  ERROR 209: undefined object Node_135 at line 949 of [CONDUIT] section:
  d135c            Node_135         Node_13951400    869.00     0.0500     1024.00    1012.00    0          0

  
  ERROR 209: undefined object Node_134 at line 950 of [CONDUIT] section:
  d134ic           Node_134         Node_14011400    1046.00    0.0400     1037.96    1012.00    0          0

  
  ERROR 209: undefined object Node_125 at line 951 of [CONDUIT] section:
  d125ic           Node_125         Node_14051399    1008.00    0.0120     1047.17    1038.00    0          0

  
  ERROR 209: undefined object Node_79 at line 952 of [CONDUIT] section:
  d79c             Node_79          Node_13981406    645.00     0.0300     1016.53    1010.00    0          0

  
  ERROR 209: undefined object Node_136 at line 953 of [CONDUIT] section:
  d136ic           Node_136         Node_13961407    2218.00    0.0120     1042.00    1014.00    0          0

  
  ERROR 209: undefined object Node_91 at line 954 of [CONDUIT] section:
  d91ic            Node_91          Node_14091410    773.00     0.0120     1024.00    1008.00    0          0

  
  ERROR 209: undefined object Node_80 at line 955 of [CONDUIT] section:
  d80c             Node_80          Node_14061410    200.00     0.0300     1010.00    1008.00    0          0

  
  ERROR 209: undefined object Node_136 at line 956 of [CONDUIT] section:
  d136c            Node_136         Node_14071411    38.00      0.0120     1014.00    1012.00    0          0

  
  ERROR 209: undefined object Node_137 at line 957 of [CONDUIT] section:
  d137ic           Node_137         Node_14041411    732.00     0.0120     1039.81    1012.00    0          0

  
  ERROR 209: undefined object Node_80 at line 958 of [CONDUIT] section:
  d80ic            Node_80          Node_14121406    1332.00    0.0120     1042.21    1010.00    0          0

  
  ERROR 209: undefined object Node_133 at line 959 of [CONDUIT] section:
  d133ic           Node_133         Node_13971415    1288.00    0.0120     1042.00    1004.00    0          0

  
  ERROR 209: undefined object Node_134 at line 960 of [CONDUIT] section:
  d134c            Node_134         Node_14001415    896.00     0.0300     1012.00    1004.00    0          0

  
  ERROR 209: undefined object Node_91 at line 961 of [CONDUIT] section:
  d91c             Node_91          Node_14101417    369.00     0.0300     1008.00    1006.00    0          0

  
  ERROR 209: undefined object Node_125 at line 962 of [CONDUIT] section:
  d125c            Node_125         Node_13991418    1498.00    0.0300     1038.00    1012.00    0          0

  
  ERROR 209: undefined object Node_93 at line 963 of [CONDUIT] section:
  d93ic            Node_93          Node_14201417    567.00     0.0400     1037.86    1006.00    0          0

  
  ERROR 209: undefined object Node_137 at line 964 of [CONDUIT] section:
  d137c            Node_137         Node_14111422    187.00     0.0120     1012.00    1008.00    0          0

  
  ERROR 209: undefined object Node_124 at line 965 of [CONDUIT] section:
  d124ic           Node_124         Node_14231418    1009.00    0.0120     1043.05    1012.00    0          0

  
  ERROR 209: undefined object Node_76 at line 966 of [CONDUIT] section:
  d76ic            Node_76          Node_14021424    1626.00    0.0120     1052.00    1014.00    0          0

  
  ERROR 209: undefined object Node_75 at line 967 of [CONDUIT] section:
  d75c             Node_75          Node_14141424    291.00     0.0120     1027.63    1014.00    0          0

  
  ERROR 209: undefined object Node_156 at line 968 of [CONDUIT] section:
  d156ic           Node_156         Node_14251426    395.00     0.0400     1044.00    1032.00    0          0

  
  ERROR 209: undefined object Node_84 at line 969 of [CONDUIT] section:
  d84ic            Node_84          Node_14081427    925.00     0.0400     1039.01    1002.00    0          0

  
  ERROR 209: undefined object Node_133 at line 970 of [CONDUIT] section:
  d133c            Node_133         Node_14151427    285.00     0.0120     1004.00    1002.00    0          0

  
  ERROR 209: undefined object Node_138 at line 971 of [CONDUIT] section:
  d138ic           Node_138         Node_14211422    1144.00    0.0120     1037.24    1008.00    0          0

  
  ERROR 209: undefined object Node_138 at line 972 of [CONDUIT] section:
  d138c            Node_138         Node_14221428    200.00     0.0120     1008.00    1006.68    0          0

  
  ERROR 209: undefined object Node_139 at line 973 of [CONDUIT] section:
  d139ic           Node_139         Node_14191428    387.00     0.0400     1030.06    1006.68    0          0

  
  ERROR 209: undefined object Node_75 at line 974 of [CONDUIT] section:
  d75ic            Node_75          Node_14161414    1233.00    0.0120     1032.00    1027.63    0          0

  
  ERROR 209: undefined object Node_132 at line 975 of [CONDUIT] section:
  d132ic           Node_132         Node_14311427    252.00     0.0120     1013.93    1002.00    0          0

  
  ERROR 209: undefined object Node_83 at line 976 of [CONDUIT] section:
  d83ic            Node_83          Node_14031432    1193.00    0.0400     1044.18    1014.00    0          0

  
  ERROR 209: undefined object Node_92 at line 977 of [CONDUIT] section:
  d92ic            Node_92          Node_14131435    2483.00    0.0400     1052.13    1005.14    0          0

  
  ERROR 209: undefined object Node_156 at line 978 of [CONDUIT] section:
  d156c            Node_156         Node_14261437    826.00     0.0120     1032.00    1013.00    0          0

  
  ERROR 209: undefined object Node_92 at line 979 of [CONDUIT] section:
  d92c             Node_92          Node_14351438    104.00     0.0300     1005.14    1002.00    0          0

  
  ERROR 209: undefined object Node_93 at line 980 of [CONDUIT] section:
  d93c             Node_93          Node_14171438    602.00     0.0300     1006.00    1002.00    0          0

  
  ERROR 209: undefined object Node_83 at line 981 of [CONDUIT] section:
  d83c             Node_83          Node_14321439    632.00     0.0120     1014.00    1004.00    0          0

  
  ERROR 209: undefined object Node_124 at line 982 of [CONDUIT] section:
  d124c            Node_124         Node_14181439    715.00     0.0120     1012.00    1004.00    0          0

  
  ERROR 209: undefined object Node_139 at line 983 of [CONDUIT] section:
  d139c            Node_139         Node_14281441    200.00     0.0120     1006.68    1004.00    0          0

  
  ERROR 209: undefined object Node_140 at line 984 of [CONDUIT] section:
  d140c            Node_140         Node_14411442    62.00      0.0120     1004.00    998.00     0          0

  
  ERROR 209: undefined object Node_142 at line 985 of [CONDUIT] section:
  d142ic           Node_142         Node_14291442    473.00     0.0400     1021.93    998.00     0          0

  
  ERROR 209: undefined object Node_132 at line 986 of [CONDUIT] section:
  d132c            Node_132         Node_14271443    359.00     0.0120     1002.00    998.00     0          0

  
  ERROR 209: undefined object Node_142 at line 987 of [CONDUIT] section:
  d142c            Node_142         Node_14421444    144.00     0.0120     998.00     993.02     0          0

  
  ERROR 209: undefined object Node_122 at line 988 of [CONDUIT] section:
  d122ic           Node_122         Node_14451439    1392.00    0.0120     1048.58    1004.00    0          0

  
  ERROR 209: undefined object ? at line 989 of [CONDUIT] section:
  d2093c           ?                b301i            378.00     0.0300     1002.00    998.00     0          0

  
  ERROR 209: undefined object Node_94 at line 990 of [CONDUIT] section:
  d94ic            Node_94          Node_14331448    1336.00    0.0120     1040.67    998.00     0          0

  
  ERROR 209: undefined object Node_76 at line 991 of [CONDUIT] section:
  d76c             Node_76          Node_14241450    992.00     0.0120     1014.00    1010.00    0          0

  
  ERROR 209: undefined object Node_74 at line 992 of [CONDUIT] section:
  d74ic            Node_74          Node_14341450    578.00     0.0120     1020.00    1010.00    0          0

  
  ERROR 209: undefined object Node_140 at line 993 of [CONDUIT] section:
  d140ic           Node_140         Node_14461441    1437.00    0.0120     1041.76    1004.00    0          0

  
  ERROR 209: undefined object Node_97 at line 994 of [CONDUIT] section:
  d97ic            Node_97          Node_14471448    913.00     0.0400     1030.00    998.00     0          0

  
  ERROR 209: undefined object Node_155 at line 995 of [CONDUIT] section:
  d155ic           Node_155         Node_14521437    727.00     0.0120     1036.00    1013.00    0          0

  
  ERROR 209: undefined object Node_131 at line 996 of [CONDUIT] section:
  d131ic           Node_131         Node_14541444    600.00     0.0120     1023.85    993.02     0          0

  
  ERROR 209: undefined object Node_131 at line 997 of [CONDUIT] section:
  d131c            Node_131         Node_14441456    86.00      0.0120     993.02     991.40     0          0

  
  ERROR 209: undefined object ? at line 998 of [CONDUIT] section:
  d2132c           ?                b410i            145.00     0.0120     998.00     991.40     0          0

  
  ERROR 209: undefined object Node_94 at line 999 of [CONDUIT] section:
  d94c             Node_94          Node_14481457    449.00     0.0300     998.00     995.00     0          0

  
  ERROR 209: undefined object Node_73 at line 1000 of [CONDUIT] section:
  d73ic            Node_73          Node_14551460    285.00     0.0120     1010.88    1005.00    0          0

  
  ERROR 209: undefined object Node_74 at line 1001 of [CONDUIT] section:
  d74c             Node_74          Node_14501460    605.00     0.0120     1010.00    1005.00    0          0

  
  ERROR 209: undefined object Node_122 at line 1002 of [CONDUIT] section:
  d122c            Node_122         Node_14391461    944.00     0.0120     1004.00    992.00     0          0

  
  ERROR 209: undefined object ? at line 1003 of [CONDUIT] section:
  d2131c           ?                b409i            367.00     0.0300     991.40     986.00     0          0

  
  ERROR 209: undefined object Node_130 at line 1004 of [CONDUIT] section:
  d130ic           Node_130         Node_14511462    591.00     0.0120     1008.05    986.00     0          0

  
  ERROR 209: undefined object ? at line 1005 of [CONDUIT] section:
  d2122c           ?                b4018            132.00     0.0120     992.00     986.00     0          0

  
  ERROR 209: undefined object Node_110 at line 1006 of [CONDUIT] section:
  d110ic           Node_110         Node_14401463    1793.00    0.0400     1050.00    1024.00    0          0

  
  ERROR 209: undefined object Node_77 at line 1007 of [CONDUIT] section:
  d77ic            Node_77          Node_14301464    1640.00    0.0400     1034.00    1002.00    0          0

  
  ERROR 209: undefined object Node_129 at line 1008 of [CONDUIT] section:
  d129c            Node_129         Node_14661462    804.00     0.0120     1004.00    986.00     0          0

  
  ERROR 209: undefined object Node_153 at line 1009 of [CONDUIT] section:
  d153ic           Node_153         Node_14361468    1311.00    0.0400     1040.00    1018.00    0          0

  
  ERROR 209: undefined object Node_129 at line 1010 of [CONDUIT] section:
  d129ic           Node_129         Node_14701466    1004.00    0.0400     1030.32    1004.00    0          0

  
  ERROR 209: undefined object Node_96 at line 1011 of [CONDUIT] section:
  d96ic            Node_96          Node_14721457    825.00     0.0400     1020.51    995.00     0          0

  
  ERROR 209: undefined object Node_96 at line 1012 of [CONDUIT] section:
  d96c             Node_96          Node_14571473    208.00     0.0120     995.00     994.74     0          0

  
  ERROR 209: undefined object Node_154 at line 1013 of [CONDUIT] section:
  d154ic           Node_154         Node_14591474    1173.00    0.0120     1038.00    1002.00    0          0

  
  ERROR 209: undefined object Node_155 at line 1014 of [CONDUIT] section:
  d155c            Node_155         Node_14371474    1584.00    0.0300     1013.00    1002.00    0          0

  
  ERROR 209: undefined object Node_77 at line 1015 of [CONDUIT] section:
  d77c             Node_77          Node_14641476    427.00     0.0120     1002.00    998.00     0          0

  
  ERROR 209: undefined object Node_73 at line 1016 of [CONDUIT] section:
  d73c             Node_73          Node_14601476    576.00     0.0120     1005.00    998.00     0          0

  
  ERROR 209: undefined object Node_152 at line 1017 of [CONDUIT] section:
  d152ic           Node_152         Node_14531477    1033.00    0.0120     1039.62    1018.00    0          0

  
  ERROR 209: undefined object Node_95 at line 1018 of [CONDUIT] section:
  d95ic            Node_95          Node_14691478    590.00     0.0400     1029.20    1012.00    0          0

  
  ERROR 209: undefined object Node_98 at line 1019 of [CONDUIT] section:
  d98ic            Node_98          Node_14821473    660.00     0.0400     1012.99    994.74     0          0

  
  ERROR 209: undefined object Node_111 at line 1020 of [CONDUIT] section:
  d111ic           Node_111         Node_14581483    1318.00    0.0400     1032.00    1012.00    0          0

  
  ERROR 209: undefined object Node_130 at line 1021 of [CONDUIT] section:
  d130c            Node_130         Node_14621484    768.00     0.0300     986.00     982.00     0          0

  
  ERROR 209: undefined object Node_121 at line 1022 of [CONDUIT] section:
  d121ic           Node_121         Node_14801484    394.00     0.0400     1017.75    982.00     0          0

  
  ERROR 209: undefined object Node_128 at line 1023 of [CONDUIT] section:
  d128ic           Node_128         Node_14811484    752.00     0.0120     1018.87    982.00     0          0

  
  ERROR 209: undefined object Node_71 at line 1024 of [CONDUIT] section:
  d71ic            Node_71          Node_14671485    1289.00    0.0120     1033.87    1008.11    0          0

  
  ERROR 209: undefined object Node_72 at line 1025 of [CONDUIT] section:
  d72ic            Node_72          Node_14711487    642.00     0.0120     1016.00    996.00     0          0

  
  ERROR 209: undefined object Node_78 at line 1026 of [CONDUIT] section:
  d78ic            Node_78          Node_14651488    1038.00    0.0120     1024.80    991.00     0          0

  
  ERROR 209: undefined object ? at line 1027 of [CONDUIT] section:
  d2073c           ?                b201i            539.00     0.0120     998.00     991.00     0          0

  
  ERROR 209: undefined object Node_71 at line 1028 of [CONDUIT] section:
  d71c             Node_71          Node_14851487    634.00     0.0120     1008.11    996.00     0          0

  
  ERROR 209: undefined object Node_98 at line 1029 of [CONDUIT] section:
  d98c             Node_98          Node_14731490    160.00     0.0120     994.74     994.00     0          0

  
  ERROR 209: undefined object Node_151 at line 1030 of [CONDUIT] section:
  d151ic           Node_151         Node_14491492    1987.00    0.0400     1034.00    1000.00    0          0

  
  ERROR 209: undefined object Node_153 at line 1031 of [CONDUIT] section:
  d153c            Node_153         Node_14681492    1026.00    0.0120     1018.00    1000.00    0          0

  
  ERROR 209: undefined object Node_78 at line 1032 of [CONDUIT] section:
  d78c             Node_78          Node_14881494    233.00     0.0120     991.00     984.46     0          0

  
  ERROR 209: undefined object Node_72 at line 1033 of [CONDUIT] section:
  d72c             Node_72          Node_14871494    618.00     0.0120     996.00     984.46     0          0

  
  ERROR 209: undefined object Node_99 at line 1034 of [CONDUIT] section:
  d99ic            Node_99          Node_14951490    442.00     0.0400     1008.00    994.00     0          0

  
  ERROR 209: undefined object Node_99 at line 1035 of [CONDUIT] section:
  d99c             Node_99          Node_14901496    178.00     0.0120     994.00     984.00     0          0

  
  ERROR 209: undefined object Node_95 at line 1036 of [CONDUIT] section:
  d95c             Node_95          Node_14781496    873.00     0.0120     1012.00    984.00     0          0

  
  ERROR 209: undefined object Node_154 at line 1037 of [CONDUIT] section:
  d154c            Node_154         Node_14741499    368.00     0.0300     1002.00    996.00     0          0

  
  ERROR 209: undefined object Node_121 at line 1038 of [CONDUIT] section:
  d121c            Node_121         Node_14841502    535.00     0.0300     982.00     981.75     0          0

  
  ERROR 209: undefined object Node_111 at line 1039 of [CONDUIT] section:
  d111c            Node_111         Node_14831503    377.00     0.0300     1012.00    1004.34    0          0

  
  ERROR 209: undefined object Node_110 at line 1040 of [CONDUIT] section:
  d110c            Node_110         Node_14631503    1135.00    0.0300     1024.00    1004.34    0          0

  
  ERROR 209: undefined object Node_109 at line 1041 of [CONDUIT] section:
  d109ic           Node_109         Node_14981503    1064.00    0.0120     1026.86    1004.34    0          0

  
  ERROR 209: undefined object ? at line 1042 of [CONDUIT] section:
  d2078c           ?                b206i            466.00     0.0120     984.46     982.00     0          0

  
  ERROR 209: undefined object Node_70 at line 1043 of [CONDUIT] section:
  d70c             Node_70          Node_15041505    68.00      0.0120     982.25     982.00     0          0

  
  ERROR 209: undefined object Node_152 at line 1044 of [CONDUIT] section:
  d152c            Node_152         Node_14771506    923.00     0.0120     1018.00    1000.00    0          0

  
  ERROR 209: undefined object Node_147 at line 1045 of [CONDUIT] section:
  d147ic           Node_147         Node_14791506    1421.00    0.0120     1029.52    1000.00    0          0

  
  ERROR 209: undefined object Node_150 at line 1046 of [CONDUIT] section:
  d150ic           Node_150         Node_15011508    578.00     0.0120     1020.77    988.00     0          0

  
  Maximum error count exceeded.

  Analysis begun on:  Sat Mar  7 21:51:24 2026
  Analysis ended on:  Sat Mar  7 21:51:24 2026
  Total elapsed time: < 1 sec